version 2
run Net10-0-20181218-16:51:45-23569
attr configname Net10
attr datetime 20181218-16:51:45
attr experiment Net10
attr inifile omnetpp.ini
attr iterationvars ""
attr iterationvarsf ""
attr measurement ""
attr network mogp.networks.Net10
attr processid 23569
attr repetition 0
attr replication #0
attr resultdir results
attr runnumber 0
attr seedset 0
param **.eventStorage.packetLength "1024 byte"
param **.node[*].operator[*].packetLength "1024 byte"

vector 0 Net10.eventStorage "End-to-End Delay" ETV
0	98	5	0
0	105	5.000166666667	0
0	112	5.000333333334	0
0	119	5.000500000001	0
0	126	5.000666666668	0
0	133	5.000833333335	0
0	79472	7.672597167477	0.671430496808
0	79491	7.673035239498	0.671701902162
0	79503	7.673473311519	0.671973307516
0	79520	7.67391138354	0.67224471287
0	79535	7.674349455561	0.672516118224
0	79549	7.674787527582	0.672787523578
0	158531	10.336075055157	1.333908380486
0	158546	10.336513127178	1.33417978584
0	158558	10.336951199199	1.334451191194
0	158577	10.33738927122	1.334722596548
0	158589	10.337827343241	1.334994001902
0	158606	10.338265415262	1.335265407256
0	237364	12.995172222627	1.992005543954
0	237376	12.995610294648	1.992276949308
0	237391	12.996048366669	1.992548354662
0	237407	12.99648643869	1.992819760016
0	237422	12.996924510711	1.99309116537
0	237439	12.997362582732	1.993362570724
0	316160	15.654707462118	2.650540779443
0	316172	15.655145534139	2.650812184797
0	316187	15.65558360616	2.651083590151
0	316204	15.656021678181	2.651354995505
0	316216	15.656459750202	2.651626400859
0	316233	15.656897822223	2.651897806213
0	395193	18.316433061714	3.311266375037
0	395212	18.316871133735	3.311537780391
0	395224	18.317309205756	3.311809185745
0	395243	18.317747277777	3.312080591099
0	395258	18.318185349798	3.312351996453
0	395272	18.318623421819	3.312623401807
0	474003	20.975092157163	3.968925466484
0	474018	20.975530229184	3.969196871838
0	474030	20.975968301205	3.969468277192
0	474047	20.976406373226	3.969739682546
0	474062	20.976844445247	3.9700110879
0	474076	20.977282517268	3.970282493254
0	553020	23.639446188885	4.632279494204
0	553035	23.639884260906	4.632550899558
0	553047	23.640322332927	4.632822304912
0	553066	23.640760404948	4.633093710266
0	553081	23.641198476969	4.63336511562
0	553095	23.64163654899	4.633636520974
0	631929	26.295038780187	5.286872081504
0	631941	26.295476852208	5.287143486858
0	631956	26.295914924229	5.287414892212
0	631973	26.29635299625	5.287686297566
0	631985	26.296791068271	5.28795770292
0	632002	26.297229140292	5.288229108274
0	710886	28.955888235741	5.946721533056
0	710900	28.956326307762	5.94699293841
0	710915	28.956764379783	5.947264343764
0	710934	28.957202451804	5.947535749118
0	710946	28.957640523825	5.947807154472
0	710963	28.958078595846	5.948078559826
0	789956	31.621118411505	6.610951704818
0	789971	31.621556483526	6.611223110172
0	789985	31.621994555547	6.611494515526
0	790002	31.622432627568	6.61176592088
0	790017	31.622870699589	6.612037326234
0	790031	31.62330877161	6.612308731588
0	869098	34.28240593908	7.271239228391
0	869113	34.282844011101	7.271510633745
0	869129	34.283282083122	7.271782039099
0	869148	34.283720155143	7.272053444453
0	869162	34.284158227164	7.272324849807
0	869181	34.284596299185	7.272596255161
0	948056	36.944131538676	7.931964823985
0	948071	36.944569610697	7.932236229339
0	948086	36.945007682718	7.932507634693
0	948100	36.945445754739	7.932779040047
0	948121	36.94588382676	7.933050445401
0	948135	36.946321898781	7.933321850755
0	990017	39.60498099423	8.591814275537
0	990023	39.605419066251	8.592085680891
0	990029	39.605857138272	8.592357086245
0	990037	39.606295210293	8.592628491599
0	990043	39.606733282314	8.592899896953
0	990051	39.607171354335	8.593171302307
0	1015896	42.272401530099	9.258234807404
0	1015902	42.27283960212	9.258506212758
0	1015908	42.273277674141	9.258777618112
0	1015916	42.273715746162	9.259049023466
0	1015922	42.274153818183	9.25932042882
0	1015930	42.274591890204	9.259591834174
0	1041750	44.94069821001	9.925531483313
0	1041756	44.941136282031	9.925802888667
0	1041762	44.941574354052	9.926074294021
0	1041770	44.942012426073	9.926345699375
0	1041776	44.942450498094	9.926617104729
0	1041784	44.942888570115	9.926888510083
0	1067703	47.605052241732	10.587718844364
0	1067709	47.605490313753	10.587990249718
0	1067715	47.605928385774	10.588261655072
0	1067723	47.606366457795	10.588533060426
0	1067729	47.606804529816	10.58880446578
0	1067737	47.607242601837	10.589075871134
0	1076757	48.535955286357	10.816621887585
0	1076764	48.536393358378	10.816893292939
0	1076770	48.536831430399	10.817164698293
0	1076778	48.53726950242	10.817436103647
0	1076784	48.537707574441	10.817707509001
0	1076792	48.538145646462	10.817978914355
0	1076798	48.538583718483	10.818250319709
0	1076804	48.539021790504	10.818521725063
0	1076810	48.539459862525	10.818793130417
0	1076818	48.539897934546	10.819064535771
0	1076824	48.540336006567	10.819335941125
0	1076832	48.540774078588	10.819607346479
0	1076838	48.541212150609	10.819878751833
0	1076844	48.54165022263	10.820150157187
0	1076850	48.542088294651	10.820421562541
0	1076858	48.542526366672	10.820692967895
0	1076864	48.542964438693	10.820964373249
0	1076872	48.543402510714	10.821235778603
0	1076878	48.543840582735	10.821507183957
0	1076884	48.544278654756	10.821778589311
0	1076890	48.544716726777	10.822049994665
0	1076898	48.545154798798	10.822321400019
0	1076904	48.545592870819	10.822592805373
0	1076921	48.54603094284	10.822864210727
0	1076927	48.546469014861	10.822968949414
0	1076933	48.546907086882	10.823240354768
0	1076939	48.547345158903	10.823511760122
0	1076947	48.547783230924	10.823783165476
0	1076953	48.548221302945	10.82405457083
0	1076961	48.548659374966	10.824325976184
0	1076967	48.549097446987	10.824597381538
0	1076973	48.549535519008	10.824868786892
0	1076979	48.549973591029	10.825140192246
0	1076987	48.55041166305	10.8254115976
0	1076993	48.550849735071	10.825683002954
0	1077001	48.551287807092	10.825954408308
0	1077007	48.551725879113	10.826225813662
0	1077013	48.552163951134	10.826497219016
0	1077019	48.552602023155	10.82676862437
0	1077027	48.553040095176	10.827040029724
0	1077033	48.553478167197	10.827311435078
0	1077041	48.553916239218	10.827582840432
0	1077047	48.554354311239	10.827854245786
0	1077053	48.55479238326	10.82812565114
0	1077059	48.555230455281	10.828397056494
0	1077067	48.555668527302	10.828668461848
0	1077077	48.556106599323	10.828939867202
0	1077085	48.556544671344	10.829211272556
0	1077091	48.556982743365	10.82948267791
0	1077097	48.557420815386	10.829754083264
0	1077103	48.557858887407	10.830025488618
0	1077111	48.558296959428	10.830296893972
0	1077117	48.558735031449	10.830568299326
0	1077125	48.55917310347	10.83083970468
0	1077131	48.559611175491	10.831111110034
0	1077137	48.560049247512	10.831382515388
0	1077143	48.560487319533	10.831653920742
0	1077151	48.560925391554	10.831925326096
0	1077157	48.561363463575	10.83219673145
0	1077165	48.561801535596	10.832468136804
0	1077171	48.562239607617	10.832739542158
0	1077177	48.562677679638	10.833010947512
0	1077183	48.563115751659	10.833282352866
0	1077191	48.56355382368	10.83355375822
0	1077197	48.563991895701	10.833825163574
0	1077205	48.564429967722	10.834096568928
0	1077211	48.564868039743	10.834367974282
0	1077217	48.565306111764	10.834639379636
0	1077223	48.565744183785	10.83491078499
0	1077231	48.566182255806	10.835182190344
0	1077237	48.566620327827	10.835453595698
0	1077245	48.567058399848	10.835725001052
0	1077251	48.567496471869	10.835996406406
0	1077257	48.56793454389	10.83626781176
0	1077262	48.568372615911	10.836539217114
0	1077269	48.568810687932	10.836810622468
0	1077274	48.569248759953	10.837082027822
0	1077281	48.569686831974	10.837353433176
0	1077286	48.570124903995	10.83762483853
0	1077291	48.570562976016	10.837896243884
0	1077296	48.571001048037	10.838167649238
0	1077303	48.571439120058	10.838439054592
0	1077308	48.571877192079	10.838710459946
0	1077315	48.5723152641	10.8389818653
0	1077320	48.572753336121	10.839253270654
0	1077325	48.573191408142	10.839524676008
0	1077330	48.573629480163	10.839796081362
0	1077337	48.574067552184	10.840067486716
0	1077342	48.574505624205	10.84033889207
0	1077349	48.574943696226	10.840610297424
0	1077354	48.575381768247	10.840881702778
0	1077359	48.575819840268	10.841153108132
0	1077364	48.576257912289	10.841424513486
0	1077371	48.57669598431	10.84169591884
0	1077376	48.577134056331	10.841967324194
0	1077383	48.577572128352	10.842238729548

