version 2
run Net10-0-20190311-14:05:08-4760
attr configname Net10
attr datetime 20190311-14:05:08
attr experiment Net10
attr inifile omnetpp.ini
attr iterationvars ""
attr iterationvarsf ""
attr measurement ""
attr network mogp.networks.Net10
attr processid 4760
attr repetition 0
attr replication #0
attr resultdir results
attr runnumber 0
attr seedset 0
param **.eventStorage.packetLength "1024 byte"
param **.node[*].operator[*].packetLength "1024 byte"

vector 0 Net10.eventStorage "End-to-End Delay" ETV
0	161	5	0
0	162	5	0
0	163	5	0
0	164	5	0
0	165	5	0
0	166	5	0
0	167	5	0
0	168	5	0
0	169	5	0
0	170	5	0
0	171	5	0
0	172	5	0
0	10961	6.031488659984	0.031488659984
0	10979	6.03210119352	0.03210119352
0	10988	6.032340444631	0.032340444631
0	10993	6.032713727056	0.032713727056
0	11002	6.032928618772	0.032928618772
0	11015	6.033326260592	0.033326260592
0	11024	6.033654660694	0.033654660694
0	11033	6.033938794128	0.033938794128
0	11044	6.034551327664	0.034551327663999
0	11052	6.0351638612	0.0351638612
0	11061	6.035776394736	0.035776394736
0	11225	6.052574908862	0.052574908862
0	21631	7.032257890453	0.031488659984
0	21653	7.032870423989	0.03210119352
0	21658	7.0331096751	0.032340444631
0	21672	7.033482957525	0.032713727056001
0	21680	7.033697849241	0.032928618772001
0	21686	7.034095491061	0.033326260592
0	21695	7.034423891163	0.033654660694
0	21701	7.034708024597	0.033938794128001
0	21710	7.035320558133	0.034551327664
0	21726	7.035933091669	0.0351638612
0	21739	7.036545625205	0.035776394736001
0	21966	7.053344139331	0.052574908862001
0	32886	8.032257890803	0.031488659984001
0	32899	8.032870424339	0.032101193520001
0	32907	8.03310967545	0.032340444631
0	32919	8.033482957875	0.032713727056001
0	32929	8.033697849591	0.032928618772001
0	32938	8.034095491411	0.033326260592
0	32947	8.034423891513	0.033654660694001
0	32952	8.034708024947	0.033938794128
0	32962	8.035320558483	0.034551327663999
0	32971	8.035933092019	0.035163861200001
0	32984	8.036545625555	0.035776394736001
0	33179	8.053385889135	0.052616658315999
0	44529	9.032972176117	0.031488659983999
0	44549	9.033584709653	0.032101193520001
0	44562	9.034039174747	0.032555658613999
0	44567	9.034197243189	0.032713727056001
0	44576	9.034627348888	0.033143832755
0	44581	9.034809776725	0.033326260592
0	44586	9.035215523029	0.033732006896001
0	44602	9.035422310261	0.033938794128
0	44612	9.036034843797	0.034551327663999
0	44623	9.036647377333	0.035163861199999
0	44636	9.037259910869	0.035776394736001
0	44839	9.054075543903	0.05259202777
0	56286	10.033661830689	0.031488659984001
0	56307	10.034274364225	0.032101193520001
0	56318	10.034682852331	0.032509681626001
0	56329	10.034886897761	0.032713727056001
0	56334	10.035271026472	0.033097855767
0	56340	10.035499431297	0.033326260592
0	56351	10.036111964833	0.033938794128
0	56360	10.03626590342	0.034092732715001
0	56369	10.036724498369	0.034551327663999
0	56379	10.037337031905	0.035163861200001
0	56397	10.037949565441	0.035776394736001
0	56609	10.054748079567	0.052574908862001
0	69027	11.033661831189	0.031488659983999
0	69049	11.034274364725	0.032101193520001
0	69057	11.034513615836	0.032340444631
0	69065	11.034886898261	0.032713727056001
0	69074	11.035101789977	0.032928618772001
0	69082	11.035499431797	0.033326260592
0	69095	11.036111965333	0.033938794128
0	69101	11.03626590392	0.034092732715001
0	69112	11.036724498869	0.034551327663999
0	69125	11.037337032405	0.035163861200001
0	69137	11.037949565941	0.035776394736001
0	69378	11.054748080067	0.052574908862001
0	81475	12.034306991979	0.031488659983999
0	81490	12.034919525515	0.032101193519999
0	81495	12.035158776626	0.032340444631
0	81504	12.035532059051	0.032713727056001
0	81509	12.035746950767	0.032928618771999
0	81522	12.036144592587	0.033326260592
0	81532	12.036472992689	0.033654660693999
0	81542	12.036757126123	0.033938794128
0	81557	12.037369659659	0.034551327663999
0	81570	12.037982193195	0.035163861199999
0	81583	12.038594726731	0.035776394736001
0	81831	12.055393240857	0.052574908862001
0	94729	13.034306991979	0.031488659983999
0	94746	13.034919525515	0.032101193519999
0	94758	13.035158776626	0.032340444631
0	94764	13.035532059051	0.032713727056001
0	94772	13.035746950767	0.032928618771999
0	94777	13.036144592587	0.033326260592
0	94795	13.036757126123	0.033938794128
0	94816	13.037369659659	0.034551327663999
0	94824	13.03751147319	0.034693141195
0	94836	13.037982193195	0.035163861199999
0	94848	13.038594726731	0.035776394736001
0	95079	13.055393240857	0.052574908862001
0	108432	14.034913052485	0.031488659983999
0	108449	14.035525586021	0.032101193520001
0	108457	14.035764837132	0.032340444631
0	108467	14.036138119557	0.032713727056001
0	108478	14.036353011273	0.032928618772001
0	108489	14.036750653093	0.033326260592
0	108499	14.037079053195	0.033654660693999
0	108508	14.037363186629	0.033938794128
0	108519	14.037975720165	0.034551327663999
0	108541	14.038588253701	0.035163861200001
0	108556	14.039200787237	0.035776394736001
0	108779	14.055999301363	0.052574908862001
0	121187	15.014888771637	0.010876144042001
0	121410	15.026057256269	0.022044628674001
0	121433	15.02661077832	0.022598150725001
0	121455	15.027548362892	0.023535735297001
0	121568	15.035701279379	0.031688651784
0	121593	15.036454823601	0.032442196006
0	121725	15.046038309676	0.042025682081
0	121883	15.056505996887	0.052493369292
0	121892	15.056963209899	0.052950582304
0	121910	15.057609250978	0.053596623383001
0	121929	15.058515530666	0.054502903071
0	122209	15.07803071135	0.074018083755
0	136473	16.015460199458	0.010876144042001
0	136738	16.02662868409	0.022044628673999
0	136758	16.027182206141	0.022598150724999
0	136782	16.027735728192	0.023151672775999
0	136935	16.0362727072	0.031688651783998
0	136961	16.037026251422	0.032442196005999
0	137127	16.046609737497	0.042025682081
0	137314	16.057077424708	0.052493369291998
0	137324	16.05753463772	0.052950582304
0	137344	16.05823797727	0.053653921854
0	137364	16.059086958487	0.054502903071
0	137642	16.078602139171	0.074018083755
0	151288	17.015460200258	0.010876144042001
0	151533	17.02662868489	0.022044628673999
0	151558	17.027182206941	0.022598150724999
0	151575	17.027735728992	0.023151672775999
0	151705	17.036272708	0.031688651783998
0	151733	17.037026252222	0.032442196005999
0	151897	17.046609738297	0.042025682081
0	152094	17.057077425508	0.052493369291998
0	152107	17.05753463852	0.052950582304
0	152132	17.058180679599	0.053596623383001
0	152148	17.059086959287	0.054502903071
0	152484	17.078602139971	0.074018083755
0	166474	18.015460201108	0.010876144041998
0	166728	18.02662868574	0.022044628673999
0	166746	18.027182207791	0.022598150724999
0	166777	18.028119792363	0.023535735296999
0	166907	18.03627270885	0.031688651783998
0	166940	18.037148852892	0.032564795825998
0	167092	18.046609739147	0.042025682080997
0	167280	18.057077426358	0.052493369291998
0	167295	18.05753463937	0.052950582304
0	167321	18.058180680449	0.053596623382997
0	167338	18.059086960137	0.054502903070997
0	167656	18.078602140821	0.074018083755
0	181547	19.015986515997	0.010876144042001
0	181777	19.027155000629	0.022044628674003
0	181804	19.02770852268	0.022598150725003
0	181822	19.028262044731	0.023151672776002
0	181946	19.036799023739	0.031688651784002
0	181979	19.037552567961	0.032442196006002
0	182124	19.047136054036	0.042025682081
0	182302	19.057603741247	0.052493369292002
0	182318	19.058060954259	0.052950582304
0	182346	19.058706995338	0.053596623383001
0	182365	19.059613275026	0.054502903071
0	182682	19.07912845571	0.074018083755
0	199475	20.028694936051	0.023584563745999
0	199492	20.029338629092	0.024228256786998
0	199628	20.036799452499	0.031689080193999
0	199650	20.03744314554	0.032332773234998
0	199860	20.04726183595	0.042151463644998
0	199885	20.048089854791	0.042979482485997
0	200075	20.057675578947	0.052565206641997
0	200086	20.058109938246	0.052999565940997
0	200108	20.058828313693	0.053717941387998
0	200135	20.05954668914	0.054436316834998
0	200297	20.069500790849	0.064390418543997
0	200649	20.090840616181	0.085730243876
0	220612	21.029445701476	0.024335329170999
0	220636	21.030089394517	0.024979022211998
0	220828	21.036975800781	0.031865428475999
0	220860	21.037619493822	0.032509121516998
0	221135	21.04726183595	0.042151463644998
0	221167	21.048089854791	0.042979482485997
0	221428	21.057675578947	0.052565206641997
0	221447	21.058109938246	0.052999565940997
0	221469	21.058828313693	0.053717941387998
0	221493	21.05954668914	0.054436316834998
0	221756	21.069677139131	0.064566766825997
0	222333	21.091016964463	0.085906592157997
0	244772	22.029871284233	0.024273107150002
0	244794	22.030514977274	0.024916800191001
0	244978	22.03738762654	0.031789449457001
0	245009	22.038031319581	0.032433142498
0	245298	22.048155715246	0.042557538163003
0	245313	22.048577659569	0.042979482486
0	245579	22.058163383725	0.052565206642001
0	245598	22.058597743024	0.052999565941001
0	245616	22.059316118471	0.053717941388001
0	245647	22.060034493918	0.054436316835002
0	245904	22.070330880146	0.064732703063001
0	246398	22.091727305115	0.086129128032002
0	268994	23.029658930905	0.023584563746002
0	269011	23.030302623946	0.024228256787001
0	269208	23.037763447353	0.031689080194003
0	269238	23.038407140394	0.032332773235002
0	269534	23.048267520934	0.042193153775003
0	269582	23.049358709071	0.043284341912003
0	269839	23.058639573801	0.052565206642001
0	269852	23.0590739331	0.052999565941001
0	269877	23.059792308547	0.053717941388001
0	269914	23.060510683994	0.054436316835002
0	270178	23.070464785703	0.064390418544001
0	270697	23.091864661576	0.085790294417002
0	291533	24.030124047034	0.023584563746002
0	291561	24.030767740075	0.024228256787001
0	291747	24.038228563482	0.031689080194003
0	291780	24.038872256523	0.032332773235002
0	292051	24.048722866195	0.042183382907002
0	292107	24.0498238252	0.043284341912003
0	292332	24.05910468993	0.052565206642001
0	292352	24.059539049229	0.052999565941001
0	292380	24.060257424676	0.053717941388001
0	292417	24.061329048354	0.054789565066002
0	292647	24.071086797381	0.064547314093002
0	293169	24.092329777705	0.085790294417002
0	317240	25.029905781578	0.02336629729
0	317295	25.03108212986	0.024542645572001
0	317538	25.038739983852	0.032200499564002
0	317598	25.039916332134	0.033376847846
0	317631	25.041092680416	0.034553196128002
0	317873	25.048740133253	0.042200648965
0	317897	25.0494585087	0.042919024412001
0	317928	25.050176884147	0.043637399859001
0	317933	25.050215732498	0.043676248210001
0	318236	25.06038903061	0.053849546322002
0	318498	25.069919036891	0.063379552603003
0	318784	25.080144360786	0.073604876498003
0	343837	26.030493954719	0.023510026987001
0	343876	26.031670303001	0.024686375269003
0	344099	26.039328156993	0.032344229261003
0	344154	26.040504505275	0.033520577543001
0	344187	26.041680853557	0.034696925825003
0	344393	26.049184576697	0.042200648965
0	344419	26.049902952144	0.042919024412001
0	344452	26.050621327591	0.043637399859001
0	344466	26.051022294687	0.044038366955
0	344749	26.061195592799	0.054211665067001
0	344983	26.070124234669	0.063140306937001
0	345286	26.080732533927	0.073748606195
0	369907	27.030503617254	0.023519688821999
0	369954	27.031679965536	0.024696037104
0	370229	27.039337819528	0.032353891096001
0	370277	27.04051416781	0.033530239377999
0	370323	27.041690516092	0.034706587660001
0	370575	27.049184577397	0.042200648965
0	370607	27.049902952844	0.042919024412001
0	370626	27.050287830964	0.043303902531999
0	370638	27.050621328291	0.043637399859001
0	371003	27.061607196915	0.054623268482999
0	371312	27.070713362884	0.063729434452
0	371644	27.080742196462	0.073758268030002
0	399705	28.030350225972	0.02336629729
0	399752	28.031526574254	0.024542645571998
0	399983	28.039184428246	0.032200499563999
0	400038	28.040360776528	0.033376847846
0	400082	28.04153712481	0.034553196127998
0	400321	28.049197117753	0.042213189070999
0	400343	28.0499154932	0.042931564518
0	400371	28.050633868647	0.043649939965
0	400385	28.050931715929	0.043947787246999
0	400704	28.061105014041	0.054121085359
0	401005	28.070669036916	0.063685108233997
0	401292	28.08058880518	0.073604876497999
0	427493	29.030350226772	0.02336629729
0	427550	29.031526575054	0.024542645571998
0	427768	29.039184429046	0.032200499563999
0	427834	29.040360777328	0.033376847846
0	427897	29.04153712561	0.034553196127998
0	428106	29.049205983801	0.042222054318998
0	428142	29.049924359248	0.042940429765999
0	428152	29.050218357394	0.043234427911997
0	428177	29.050642734695	0.043658805212999
0	428511	29.061242508676	0.054258579193998
0	428805	29.071034683909	0.064050754426997
0	429085	29.08058880598	0.073604876497999
0	455162	30.018268236039	0.010876144042001
0	455527	30.029436720671	0.022044628674003
0	455550	30.029990242722	0.022598150725003
0	455571	30.030543764773	0.023151672776002
0	455817	30.039080743781	0.031688651784002
0	455843	30.039834288003	0.032442196006002
0	456089	30.049417774078	0.042025682081
0	456387	30.059885461289	0.052493369292002
0	457012	30.081555950336	0.074163858339002
0	457052	30.082594258912	0.075202166915002
0	457073	30.0835005386	0.076108446603001
0	457622	30.103373912453	0.095981820456
0	481107	31.01830630806	0.010914216063
0	481515	31.029436720671	0.022044628674003
0	481542	31.029990242722	0.022598150725003
0	481575	31.030543764773	0.023151672776002
0	481856	31.039080743781	0.031688651784002
0	481903	31.039956887823	0.032564795826001
0	482195	31.049455846099	0.042063754102003
0	482510	31.059885461289	0.052493369292002
0	482530	31.060342674301	0.052950582304
0	482554	31.06098871538	0.053596623383001
0	482578	31.061894995068	0.054502903071
0	483135	31.081410175752	0.074018083755
0	510877	32.018268236689	0.010876144041994
0	511313	32.029436721321	0.022044628673996
0	511342	32.029990243372	0.022598150724995
0	511361	32.030543765423	0.023151672775995
0	511648	32.039090924115	0.031698831467999
0	511689	32.039834288653	0.032442196005995
0	511975	32.049417774728	0.042025682080997
0	512326	32.059885461939	0.052493369291994
0	512353	32.060342674951	0.052950582304
0	512403	32.061729775194	0.054337682546993
0	512430	32.062286907967	0.054894815319997
0	513046	32.082336120811	0.074944028163998
0	541238	33.018268237689	0.010876144042001
0	541657	33.029436722321	0.022044628674003
0	541680	33.029990244372	0.022598150725003
0	541709	33.030543766423	0.023151672776002
0	541988	33.039080745431	0.031688651784002
0	542055	33.040394961494	0.033002867847003
0	542328	33.049417775728	0.042025682081004
0	542655	33.059885462939	0.052493369292002
0	542670	33.060342675951	0.052950582304
0	542708	33.061192275786	0.053800182139
0	542744	33.062098555474	0.054706461827003
0	543322	33.081613736158	0.074221642510999
0	569361	34.018268238839	0.010876144042001
0	569768	34.029556400521	0.022164305724004
0	569793	34.030109922572	0.022717827775004
0	569816	34.030663444623	0.023271349826004
0	570091	34.039200423631	0.031808328834003
0	570136	34.039953967853	0.032561873056004
0	570424	34.049417776878	0.042025682081004
0	570761	34.059885464089	0.052493369292002
0	570778	34.060342677101	0.052950582304
0	570807	34.06098871818	0.053596623383001
0	570839	34.061894997868	0.054502903071004
0	571453	34.081410178552	0.074018083755
0	600255	35.018638608209	0.010876144042001
0	600720	35.029807092841	0.022044628673996
0	600754	35.030360614892	0.022598150724995
0	600785	35.030914136943	0.023151672775995
0	601068	35.039451115951	0.031688651783995
0	601127	35.040765332014	0.033002867846996
0	601404	35.049788146248	0.042025682080997
0	601752	35.060255833459	0.052493369291994
0	601774	35.060713046471	0.052950582304
0	601807	35.06135908755	0.053596623383001
0	601840	35.062405770834	0.054643306666996
0	602468	35.081780547922	0.074018083755
0	631409	36.018638609209	0.010876144042001
0	631825	36.029807093841	0.022044628674003
0	631850	36.030360615892	0.022598150725003
0	631884	36.030914137943	0.023151672776002
0	632171	36.039451116951	0.031688651784002
0	632216	36.040204661173	0.032442196006002
0	632548	36.049788147248	0.042025682081004
0	632910	36.060320779974	0.052558314807001
0	632926	36.060777992986	0.053015527818999
0	632951	36.06135908855	0.053596623383001
0	632987	36.062265368238	0.054502903071004
0	633641	36.082393044435	0.074630579268003
0	661796	37.018995751666	0.010876144042001
0	662231	37.030366664177	0.022247056553006
0	662254	37.030920186228	0.022800578604006
0	662283	37.031473708279	0.023354100655006
0	662594	37.040399260439	0.032279652815006
0	662622	37.04083733246	0.032717724836004
0	662925	37.050145289705	0.042025682081004
0	663287	37.060612976916	0.052493369292002
0	663306	37.061070189928	0.052950582304
0	663336	37.061716231007	0.053596623383001
0	663372	37.062622510695	0.054502903071004
0	663991	37.082137691379	0.074018083755
0	694189	38.019082946544	0.010963338869999
0	694682	38.030164236348	0.022044628674003
0	694721	38.030717758399	0.022598150725003
0	694748	38.03127128045	0.023151672776002
0	695067	38.040049039919	0.031929432245001
0	695107	38.04056180368	0.032442196006002
0	695456	38.050232484583	0.042112876909002
0	695839	38.060612976966	0.052493369292002
0	695861	38.061070189978	0.052950582304
0	695897	38.06183994776	0.053720340086002
0	695931	38.062746227448	0.054626619774005
0	696587	38.082261408132	0.074141800458001
0	727203	39.019340578702	0.010876144042001
0	727578	39.030509063334	0.022044628674003
0	727607	39.031062585385	0.022598150725003
0	727643	39.032000169957	0.023535735297003
0	727893	39.040153086444	0.031688651784002
0	727931	39.040906630666	0.032442196006002
0	728208	39.050490116741	0.042025682081004
0	728544	39.060957803952	0.052493369292002
0	728564	39.061415016964	0.052950582304
0	728600	39.062304404598	0.053839969938004
0	728637	39.063299583669	0.054835149009001
0	729180	39.083022374721	0.074557940060998
0	759089	40.0318307324	0.023366297289996
0	759140	40.033007080682	0.024542645571998
0	759409	40.040664934674	0.032200499563999
0	759469	40.041841282956	0.033376847846
0	759521	40.043017631238	0.034553196128002
0	759782	40.050665084075	0.042200648965
0	759808	40.051383459522	0.042919024412001
0	759840	40.052101834969	0.043637399859001
0	759848	40.052171903934	0.043707468824003
0	760224	40.062345202046	0.053880766935997
0	760561	40.071909224885	0.063444789774998
0	760922	40.082069311608	0.073604876498003
0	793729	41.032164064733	0.023366297289996
0	793778	41.033340413015	0.024542645571998
0	794074	41.040998267007	0.032200499563999
0	794130	41.042174615289	0.033376847846
0	794186	41.043350963571	0.034553196128002
0	794477	41.051383458522	0.042585691078997
0	794518	41.052101833969	0.043304066525998
0	794541	41.052474015653	0.043676248209998
0	794552	41.052820209416	0.044022441972999
0	794908	41.062647313765	0.053849546321999
0	795262	41.072366755366	0.063568987922999
0	795605	41.082402643941	0.073604876498003
0	826415	42.032491932185	0.023366297289996
0	826464	42.033668280467	0.024542645571998
0	826745	42.041326134459	0.032200499563999
0	826811	42.042502482741	0.033376847846
0	826849	42.043678831023	0.034553196128002
0	827108	42.05132628386	0.042200648965
0	827138	42.052044659307	0.042919024412001
0	827155	42.052329578132	0.043203943236996
0	827181	42.052763034754	0.043637399859001
0	827531	42.063353729414	0.054228094518997
0	827814	42.072340312967	0.063214678072001
0	828171	42.082730511393	0.073604876498003
0	861495	43.03281451233	0.023366297289996
0	861545	43.033990860612	0.024542645571998
0	861867	43.041648714604	0.032200499563999
0	861941	43.042825062886	0.033376847845993
0	861986	43.044001411168	0.034553196127995
0	862321	43.052044658807	0.042596443766996
0	862361	43.052763034254	0.043314819213997
0	862380	43.05312446325	0.043676248209998
0	862400	43.053481409701	0.044033194660997
0	862777	43.063297761362	0.053849546321999
0	863123	43.072588521977	0.063140306936994
0	863499	43.083053091538	0.073604876497996
0	897707	44.034138572019	0.024372898111999
0	897772	44.035903094442	0.026137420535001
0	898021	44.042972774293	0.033207100386001
0	898067	44.044149122575	0.034383448668002
0	898118	44.045913644998	0.036147971091005
0	898304	44.051966322872	0.042200648965
0	898331	44.052684698319	0.042919024412001
0	898359	44.053403073766	0.043637399859001
0	898597	44.061782756646	0.052017082738999
0	898689	44.064621821051	0.054856147144001
0	899259	44.084377151227	0.074611477320005
0	899524	44.09354416026	0.083778486353005
0	931196	45.020641817949	0.010876144042001
0	931681	45.031994838122	0.022229164214998
0	931710	45.032548360173	0.022782686265998
0	931724	45.033101882224	0.023336208317005
0	932067	45.041638861232	0.031873187325004
0	932145	45.042953077295	0.033187403387998
0	932481	45.051791355988	0.042025682081004
0	932895	45.062259043199	0.052493369292002
0	932921	45.062764859419	0.052999185512
0	932962	45.063803167995	0.054037494088
0	933004	45.064709447683	0.054943773776003
0	933782	45.084582821536	0.074817147628998
0	968820	46.020641818949	0.010876144042001
0	969326	46.031810303581	0.022044628673996
0	969350	46.032363825632	0.022598150724995
0	969388	46.032917347683	0.023151672775995
0	969732	46.041454326691	0.031688651783995
0	969781	46.042460000765	0.032694325857996
0	970164	46.051791356988	0.042025682080997
0	970593	46.062259044199	0.052493369291994
0	970643	46.063778740603	0.054013065695997
0	970702	46.064884243187	0.055118568280001
0	970734	46.065723328867	0.05595765396
0	971467	46.085238509551	0.075472834643996
0	1004096	47.02107989087	0.011011185759997
0	1004586	47.032113333784	0.022044628673996
0	1004630	47.032666855835	0.022598150724995
0	1004660	47.033604440407	0.023535735296996
0	1005024	47.042138879025	0.032070173914995
0	1005083	47.043015023067	0.032946317956998
0	1005460	47.052229428909	0.042160723799
0	1005876	47.062562074402	0.052493369292002
0	1006005	47.066009854237	0.055941149127001
0	1006080	47.067213505917	0.057144800806995
0	1006110	47.067954442501	0.057885737390997
0	1006899	47.087469623185	0.077400918075
0	1042852	48.02108441476	0.011015708599999
0	1043317	48.032113334834	0.022044628674003
0	1043337	48.032666856885	0.022598150725003
0	1043362	48.033220378936	0.023151672776002
0	1043743	48.041827203139	0.031758496979002
0	1043808	48.043141419202	0.033072713042003
0	1044231	48.052514256225	0.042445550065004
0	1044667	48.062840560923	0.052771854763002
0	1044739	48.064438350419	0.054369644258998
0	1044795	48.065476658995	0.055407952834997
0	1044832	48.066382938683	0.056314232523
0	1045623	48.085898119367	0.075829413207003
0	1082313	49.021238967649	0.010876144042001
0	1082863	49.032407452281	0.022044628674003
0	1082886	49.032960974332	0.022598150725003
0	1082937	49.033898558904	0.023535735297003
0	1083305	49.042051475391	0.031688651784002
0	1083344	49.042805019613	0.032442196006002
0	1083747	49.052388505688	0.042025682081004
0	1084179	49.062856192899	0.052493369292002
0	1084202	49.063509190249	0.053146366642004
0	1084259	49.064717228449	0.054354404842002
0	1084300	49.065453778513	0.055090954905999
0	1085078	49.085303961855	0.074941138248001
0	1120234	50.02167703807	0.011024360990994
0	1120767	50.032697305753	0.022044628673996
0	1120808	50.033250827804	0.022598150724995
0	1120838	50.033804349855	0.023151672775995
0	1121183	50.042341328863	0.031688651783995
0	1121250	50.043217472905	0.032564795825998
0	1121664	50.053106879535	0.042454202456
0	1122088	50.063146046371	0.052493369291994
0	1122118	50.063603259383	0.052950582304
0	1122154	50.064249300462	0.053596623383001
0	1122194	50.06515558015	0.054502903070997
0	1122987	50.084711827805	0.074059150726001
0	1160409	51.021788902455	0.011136224376003
0	1160945	51.033331270518	0.022678592439
0	1160981	51.033884792569	0.02323211449
0	1161010	51.03443831462	0.023785636541
0	1161397	51.042975293628	0.032322615548999
0	1161443	51.04385143767	0.033198759591002
0	1161821	51.052938440494	0.042285762414998
0	1162247	51.063146047371	0.052493369292002
0	1162263	51.063603260383	0.052950582304
0	1162307	51.064249301462	0.053596623383001
0	1162337	51.06515558115	0.054502903071004
0	1163113	51.085011711099	0.074359033020002
0	1199102	52.021528822671	0.010876144042001
0	1199642	52.032697307303	0.022044628673996
0	1199675	52.033250829354	0.022598150724995
0	1199699	52.033804351405	0.023151672775995
0	1200104	52.042341330413	0.031688651784002
0	1200152	52.043094874635	0.032442196005995
0	1200571	52.05267836071	0.042025682080997
0	1201068	52.063195201175	0.052542522545998
0	1201093	52.063652414187	0.052999735557997
0	1201130	52.064555786012	0.053903107383
0	1201181	52.0654620657	0.054809387070996
0	1202080	52.085521353161	0.074868674531999
0	1240288	53.021571634179	0.010918954749997
0	1240826	53.032697308103	0.022044628673996
0	1240862	53.033250830154	0.022598150724995
0	1240890	53.033804352205	0.023151672775995
0	1241260	53.042341331213	0.031688651784002
0	1241308	53.043094875435	0.032442196005995
0	1241709	53.052721172218	0.042068492788999
0	1242162	53.063203026701	0.052550347271996
0	1242185	53.063660239713	0.053007560284001
0	1242238	53.064559699175	0.053907019745999
0	1242287	53.065465978863	0.054813299433995
0	1243063	53.085224550311	0.074571870881996
0	1281687	54.021692923839	0.011040243460002
0	1282224	54.032869462326	0.022216781947002
0	1282248	54.033422984377	0.022770303998001
0	1282275	54.033976506428	0.023323826049001
0	1282686	54.042880175751	0.032227495372005
0	1282711	54.043318247772	0.032665567393003
0	1283114	54.052842461878	0.042189781499005
0	1283535	54.063146049671	0.052493369292002
0	1283551	54.063603262683	0.052950582304
0	1283583	54.064249303762	0.053596623383001
0	1283616	54.06515558345	0.054502903071004
0	1284339	54.084881068833	0.074228388454003
0	1322385	55.034289246939	0.023366297289996
0	1322465	55.036053769362	0.025130819712999
0	1322775	55.043123449213	0.032200499563999
0	1322851	55.044299797495	0.033376847846
0	1322925	55.046064319918	0.035141370268995
0	1323240	55.053301433521	0.042378483872
0	1323272	55.054019808968	0.043096859319
0	1323285	55.054126892886	0.043203943236996
0	1323312	55.054738184415	0.043815234766001
0	1323760	55.065151044168	0.054228094518997
0	1324166	55.074712898709	0.063789949060002
0	1324595	55.084527826147	0.073604876497996
0	1365340	56.03445377061	0.023530819710999
0	1365415	56.035630118892	0.024707167993
0	1365819	56.043287972884	0.032365021985001
0	1365908	56.044464321166	0.033541370266995
0	1365967	56.045640669448	0.034717718548997
0	1366335	56.053123599864	0.042200648965
0	1366385	56.053841975311	0.042919024412001
0	1366410	56.054227389858	0.043304438958998
0	1366426	56.054560350758	0.043637399858994
0	1366941	56.06525154114	0.054328590240999
0	1367373	56.074523995584	0.063601044685001
0	1367852	56.084826241441	0.073903290541999
0	1407083	57.034939281681	0.024016329782
0	1407152	57.036115629963	0.025192678064002
0	1407536	57.043773483955	0.032850532056003
0	1407599	57.044949832237	0.034026880338004
0	1407663	57.046126180519	0.035203228619999
0	1408019	57.053233305258	0.042310353358999
0	1408055	57.053951680705	0.043028728806
0	1408098	57.054670056152	0.043747104253001
0	1408128	57.055262455397	0.044339503498001
0	1408619	57.065435753509	0.054512801610002
0	1409022	57.074342908626	0.063419956727003
0	1409503	57.085504112772	0.074581160873002
0	1450451	58.053371298496	0.042448345596995
0	1450484	58.054089673943	0.043166721043995
0	1450525	58.05480804939	0.043885096490996
0	1451189	58.07047725343	0.059554300530998
0	1451235	58.071504319142	0.060581366242999
0	1451567	58.079162173134	0.068239220235
0	1451637	58.080650551542	0.069727598642999
0	1451670	58.081514869698	0.070591916798996
0	1452418	58.099148503769	0.08822555087
0	1452496	58.100811219892	0.089888266993
0	1453350	58.120566550068	0.109643597169
0	1453411	58.122087295268	0.11116434236899
0	1492182	59.053561672285	0.042382310729998
0	1492216	59.054280047732	0.043100686176999
0	1492246	59.054998423179	0.043819061623999
0	1497192	59.191387883606	0.180208522051
0	1497253	59.192564231888	0.181384870333
0	1497543	59.20022208588	0.189042724325
0	1497595	59.201398434162	0.190219072607
0	1497654	59.202574782444	0.19139542088899
0	1497997	59.211697834526	0.200518472971
0	1498362	59.221871132638	0.210691771083
0	1498784	59.233148247617	0.22196888606199
0	1499122	59.241626462814	0.230447101259
0	1532614	60.022055505747	0.010876144042001
0	1533144	60.033223990379	0.022044628674003
0	1533175	60.03377751243	0.022598150725003
0	1533208	60.034331034481	0.023151672776002
0	1533622	60.043305505747	0.032126144042003
0	1533664	60.044181649789	0.033002288083999
0	1534066	60.053205043786	0.042025682081004
0	1534526	60.063672730997	0.052493369292002
0	1546656	60.346345206997	0.335165845292
0	1546735	60.347743577768	0.336564216063
0	1546757	60.348289795261	0.337110433556
0	1547591	60.367804975945	0.35662561424
0	1575329	61.022243577768	0.011064216063005
0	1575864	61.033223990379	0.022044628674003
0	1575896	61.03377751243	0.022598150725003
0	1575927	61.034331034481	0.023151672776002
0	1576243	61.042868013489	0.031688651784002
0	1576274	61.043621557711	0.032442196006002
0	1576614	61.053673419233	0.042494057528003
0	1576904	61.063672730997	0.052493369292002
0	1594485	61.477992254281	0.466812892576
0	1594573	61.479586369487	0.46840700778201
0	1594586	61.479936842545	0.46875748084
0	1595454	61.499452023229	0.488272661524
0	1616798	62.022302418327	0.010876144042001
0	1617359	62.03372102492	0.022294750634998
0	1617393	62.034274546971	0.022848272685998
0	1617428	62.034828069022	0.023401794736998
0	1617828	62.043716100102	0.032289825816996
0	1617852	62.044154172123	0.032727897838001
0	1618266	62.053451956366	0.042025682080997
0	1618727	62.063919643577	0.052493369292002
0	1644441	62.644341575884	0.632915301599
0	1644526	62.645717052411	0.634290778126
0	1644559	62.646286164148	0.634859889863
0	1645580	62.666159538001	0.654733263716
0	1662444	63.022546320666	0.010876144041994
0	1663069	63.034474204604	0.022804027979994
0	1663103	63.035027726655	0.023357550030994
0	1663133	63.035581248706	0.023911072082001
0	1663566	63.044474031471	0.032803854846996
0	1663593	63.044912103492	0.033241926867994
0	1664020	63.053695858705	0.042025682080997
0	1664548	63.064163545916	0.052493369291994
0	1690935	63.613652560252	0.601982383628
0	1690997	63.614690868828	0.603020692204
0	1691046	63.615597148516	0.60392697189199
0	1691928	63.635470522369	0.623800345745
0	1711417	64.022787282771	0.010876144041987
0	1712066	64.034498126437	0.022586987707996
0	1712101	64.035051648488	0.023140509758989
0	1712158	64.03615869259	0.024247553860988
0	1712574	64.044142149547	0.032231010817995
0	1712619	64.044895693769	0.032984555039988
0	1713066	64.05393682081	0.04202568208099
0	1713625	64.064783701418	0.052872562688989
0	1728511	64.35363114853	0.34172000980099
0	1728575	64.354613938206	0.342702799477
0	1728621	64.355520217894	0.34360907916499
0	1729654	64.375035398578	0.36312425984899
0	1762242	65.023225354392	0.011076120824995
0	1762860	65.034515337739	0.022366104171994
0	1762890	65.03506885979	0.022919626223
0	1762920	65.035622381841	0.023473148273993
0	1763363	65.044159360849	0.032010127281993
0	1763420	65.044912905071	0.032763671504
0	1763898	65.054655195857	0.042505962289994
0	1764390	65.064642602859	0.052493369291994
0	1770174	65.179427642494	0.167278408927
0	1770243	65.18041043217	0.16826119860299
0	1770277	65.181316711858	0.169167478291
0	1771299	65.201215206199	0.18906597263199
0	1809860	66.023025379109	0.010876144042001
0	1811585	66.054187410241	0.042038175174
0	1812135	66.064784549659	0.052635314591996
0	1812162	66.065241762671	0.053092527603994
0	1812216	66.066098738473	0.053949503406002
0	1812273	66.067005018161	0.054855783093998
0	1813220	66.085182904047	0.073033668980003
0	1813245	66.085736426098	0.073587191030995
0	1813275	66.086289948149	0.074140713082002
0	1813318	66.086960282531	0.074811047463996
0	1813719	66.094885844369	0.082736609302003
0	1813779	66.095816076929	0.083666841861998
0	1859644	67.023025381109	0.010876144042001
0	1860336	67.034458343142	0.022309106074999
0	1860382	67.035011865193	0.022862628126006
0	1860438	67.035949449765	0.023800212698006
0	1860904	67.04440469141	0.032255454343002
0	1860944	67.044855910474	0.032706673407006
0	1861457	67.054174919148	0.042025682081004
0	1862007	67.064642606359	0.052493369292009
0	1862043	67.065309283597	0.05316004653001
0	1862117	67.066473656882	0.054324419815003
0	1862166	67.067253871861	0.055104634794006
0	1863057	67.086769052545	0.074619815478002
0	1907866	68.023255264116	0.010876144042001
0	1909244	68.054404802155	0.042025682081004
0	1909474	68.059121079117	0.046741959043004
0	1909494	68.059674601168	0.047295481093997
0	1909529	68.06061218574	0.048233065665997
0	1909692	68.064872489366	0.052493369291994
0	1909715	68.065351242865	0.05297212279099
0	1909758	68.066334032541	0.053954912466992
0	1909796	68.067240312229	0.054861192155002
0	1909858	68.068765102227	0.056385982153003
0	1909896	68.069518646449	0.057139526374996
0	1910575	68.087172036987	0.074792916912997
0	1955857	69.023482535643	0.010876144042001
0	1956481	69.034651020275	0.022044628673996
0	1956514	69.035204542326	0.022598150725003
0	1956540	69.035758064377	0.023151672775995
0	1956983	69.044381412036	0.031775020435006
0	1957055	69.04528028844	0.032673896839
0	1957541	69.054668630948	0.042062239347004
0	1958096	69.065257748975	0.052651357374003
0	1958119	69.065714961987	0.053108570386001
0	1958190	69.066853322136	0.054246930535001
0	1958228	69.067470196086	0.054863804484995
0	1959179	69.08698537677	0.074378985169005
0	2007531	70.034385846254	0.021554736102004
0	2007630	70.035610913326	0.022779803174004
0	2008186	70.044710151292	0.031879041140002
0	2008264	70.045942509876	0.033111399724007
0	2008353	70.047007820358	0.034176710206012
0	2008854	70.055972068935	0.043140958782999
0	2008873	70.056375780198	0.043544670046003
0	2008921	70.056988313734	0.044157203582003
0	2009452	70.067291241024	0.054460130872002
0	2009909	70.07659614303	0.06376503287801
0	2009975	70.077910359093	0.065079248941004
0	2010436	70.087262809686	0.074431699534003
0	2055884	71.034388342133	0.021335010759003
0	2055974	71.035613409205	0.022560077831002
0	2056473	71.044741983158	0.031688651784009
0	2056607	71.046586201917	0.033532870542999
0	2056672	71.047595993499	0.034542662125006
0	2057110	71.055836764008	0.042783432633996
0	2057153	71.056378276077	0.043324944703002
0	2057187	71.056990809613	0.043937478239002
0	2057778	71.067879414165	0.054826082790996
0	2058271	71.077302836974	0.064249505600003
0	2058291	71.077740908995	0.064687577621001
0	2058776	71.086858150318	0.073804818943998
0	2107697	72.034220254041	0.021166921667003
0	2107793	72.035445321113	0.022391988739002
0	2108334	72.044741984158	0.031688651783995
0	2108480	72.04668173972	0.033628407346001
0	2108552	72.047747050202	0.034693717828006
0	2108992	72.055836765008	0.042783432633996
0	2109014	72.056210187985	0.043156855611002
0	2109072	72.056822721521	0.043769389147002
0	2109737	72.068388664037	0.055335331663002
0	2110205	72.076946814836	0.063893482461992
0	2110263	72.077822958878	0.064769626504003
0	2110791	72.087452050052	0.074398717677994
0	2153938	73.044959373862	0.031688651783995
0	2154555	73.056649863563	0.043379141484991
0	2156213	73.087081290332	0.07381056825399
0	2156331	73.089054960218	0.075784238139988
0	2156399	73.0901202707	0.076849548621993
0	2157457	73.110403691366	0.097132969287998
0	2157944	73.119320035334	0.10604931325599
0	2157985	73.120073579556	0.10680285747799
0	2158032	73.120906203049	0.107635480971
0	2158110	73.122131270121	0.108860548043
0	2158897	73.136832074985	0.12356135290699
0	2161687	73.190122492617	0.17685177053899
0	2204416	74.034835121468	0.021349347676988
0	2204505	74.03606018854	0.022574414748988
0	2204993	74.045456407353	0.031970633561997
0	2205615	74.057180122565	0.043694348773997
0	2205620	74.057189596304	0.043703822512995
0	2205647	74.057792656101	0.044306882309996
0	2207093	74.087238883954	0.073753110162997
0	2214280	74.230700967899	0.21721519410799
0	2214338	74.231766278381	0.21828050459
0	2215388	74.252049699047	0.23856392525599
0	2215836	74.260966043015	0.247480269224
0	2215887	74.261842187057	0.248356413266
0	2252851	75.056072460761	0.042373923113004
0	2252889	75.056790836208	0.043092298559998
0	2252937	75.057509211655	0.043810674007005
0	2260179	75.190855023974	0.177156486326
0	2260277	75.192619546397	0.178921008749
0	2260645	75.199689226248	0.1859906886
0	2260713	75.20086557453	0.187167036882
0	2260804	75.202630096953	0.188931559305
0	2261643	75.218499208601	0.20480067095301
0	2261801	75.221338273006	0.207639735358
0	2262885	75.241093603182	0.227395065534
0	2262903	75.2414380001	0.22773946245201
0	2305156	76.055985984112	0.042287445463998
0	2305199	76.056704359559	0.043005820910992
0	2305238	76.057422735006	0.043724196357999
0	2320553	76.359557042141	0.34585850349299
0	2320657	76.361321564564	0.34762302591599
0	2321038	76.368391244415	0.35469270576699
0	2321097	76.369567592697	0.35586905404899
0	2321197	76.37133211512	0.357633576472
0	2322009	76.387201226768	0.37350268812
0	2322155	76.390040291173	0.37634175252499
0	2323142	76.410153814518	0.39645527587
0	2323209	76.411316366549	0.397617827901
0	2355899	77.056293513582	0.042386643201013
0	2355931	77.056885660042	0.042978789661007
0	2355969	77.05754427024	0.043637399859008
0	2363850	77.199469715489	0.18556284510801
0	2363923	77.200646063771	0.18673919339001
0	2364362	77.208303917763	0.19439704738201
0	2364424	77.209480266045	0.195573395664
0	2364496	77.210656614327	0.196749743946
0	2365421	77.227702074257	0.213795203876
0	2365559	77.229952964521	0.21604609414001
0	2366644	77.249708294697	0.23580142431601
0	2366752	77.251817214038	0.23791034365701
0	2405951	78.05633940575	0.042226349852001
0	2405992	78.057057781197	0.042944725299009
0	2406027	78.057776156644	0.043663100746002
0	2430457	78.554034762212	0.539921706314
0	2430519	78.555211110494	0.54109805459601
0	2430914	78.562868964486	0.54875590858801
0	2430986	78.564045312768	0.54993225687001
0	2431041	78.56522166105	0.55110860515201
0	2432058	78.584641958259	0.570528902361
0	2432152	78.586384339967	0.572271284069
0	2433063	78.60427334142	0.590160285522
0	2433738	78.618145743581	0.604032687683
0	2457067	79.072516026953	0.058402969355001
0	2457106	79.0732344024	0.059121344802008
0	2457144	79.073952777847	0.059839720249002
0	2489119	79.797746926412	0.78363386881401
0	2489190	79.799199418709	0.785086361111
0	2489518	79.80626909856	0.792156040962
0	2489576	79.807445446842	0.793332389244
0	2489663	79.809209969265	0.795096911667
0	2490497	79.827918145318	0.81380508772
0	2491449	79.847673475494	0.83356041789601
0	2491764	79.853899613822	0.839786556224
0	2492910	79.877426579462	0.863313521864
0	2501741	80.056824268654	0.042509190953993
0	2501778	80.057542644101	0.043227566401001
0	2501819	80.058261019548	0.043945941847994
0	2552293	81.057607222783	0.043292145083001
0	2552341	81.05832559823	0.044010520529994
0	2552375	81.059043973677	0.044728895976988
0	2559914	81.214346401955	1.200031324255
0	2559975	81.215522750237	1.201207672537
0	2560347	81.223180604229	1.208865526529
0	2560411	81.224356952511	1.210041874811
0	2560467	81.225533300793	1.211218223093
0	2561409	81.244829650987	1.230514573287
0	2561497	81.24669597971	1.23238090201
0	2562363	81.264584981163	1.250269903463
0	2562893	81.275828542745	1.261513465045
0	2598871	82.057078114827	0.042763037027001
0	2598910	82.057796490274	0.043481412474009
0	2598944	82.058514865721	0.044199787921002
0	2620381	82.485978894797	1.471663817097
0	2620446	82.487155243079	1.472840165379
0	2620853	82.494813097071	1.480498019371
0	2620922	82.495989445353	1.481674367653
0	2620979	82.497165793635	1.482850715935
0	2621987	82.516462143829	1.502147066129
0	2622323	82.52303386568	1.50871878798
0	2623000	82.536272992905	1.521957915205
0	2623834	82.553030746871	1.538715669171
0	2649471	83.056711803296	0.042200648964993
0	2649512	83.057430178743	0.042919024412001
0	2649551	83.05814855419	0.043637399858994
0	2692532	83.928181888529	1.913866810729
0	2692621	83.929946410952	1.915631333152
0	2692975	83.937016090803	1.922701013003
0	2693042	83.938192439085	1.923877361285
0	2693124	83.939956961508	1.925641883708
0	2694050	83.958665137561	1.944350059761
0	2694200	83.961707814566	1.947392736766
0	2694988	83.978420467737	1.964105389937
0	2695617	83.991704695757	1.977389617957
0	2698964	84.0574798998	0.042774572162003
0	2699014	84.058198275247	0.043492947608996
0	2699044	84.058916650694	0.044211323056004
0	2747712	85.057485499395	0.042587865664999
0	2747748	85.058203874842	0.043306241111992
0	2747797	85.058922250289	0.044024616559
0	2757512	85.248044660933	2.233533506602
0	2757590	85.249533039341	2.23502188501
0	2757965	85.256878863207	2.242367708876
0	2758040	85.258055211489	2.243544057158
0	2758104	85.259231559771	2.24472040544
0	2759100	85.278527909965	2.264016755634
0	2759225	85.280982412829	2.266471258498
0	2760106	85.298283240141	2.28377208581
0	2760654	85.309364054167	2.294852899836
0	2798136	86.057288756385	0.042200648964993
0	2798178	86.058007131832	0.042919024412001
0	2798225	86.058725507279	0.043637399858994
0	2832440	86.711145779726	2.696440452088
0	2832518	86.712598272023	2.697892944385
0	2832910	86.719667951874	2.704962624236
0	2832975	86.720844300156	2.706138972518
0	2833061	86.722608822579	2.707903494941
0	2834085	86.741316998632	2.726611670994
0	2834361	86.746712372201	2.732007044563
0	2835170	86.76143588619	2.746730558552
0	2836051	86.777885601674	2.763180274036
0	2850433	87.057879164618	0.042602379453001
0	2850466	87.058597540065	0.043320754899995
0	2850512	87.059315915512	0.044039130347002
0	2898633	88.055988010067	3.041090376337
0	2898699	88.057164358349	3.042266724619
0	2898719	88.057541675175	0.042264889210003
0	2898754	88.058260050622	0.042983264656996
0	2898798	88.058978426069	0.043701640104004
0	2899101	88.064822212341	3.049924578611
0	2899174	88.065998560623	3.051100926893
0	2899240	88.067174908905	3.052277275175
0	2900297	88.087010082143	3.072112448413
0	2900609	88.09304298095	3.07814534722
0	2901313	88.106375871845	3.091478238115
0	2902268	88.124804384564	3.109906750834
0	2951164	89.057662619115	0.042200648964993
0	2951200	89.058380994562	0.042919024412001
0	2951232	89.059099370009	0.043637399858994
0	2975971	89.542892238515	3.527804131095
0	2976043	89.544068586797	3.528980479377
0	2976448	89.551726440789	3.536638333369
0	2976522	89.552902789071	3.537814681651
0	2976585	89.554079137353	3.538991029933
0	2977605	89.573499434562	3.558411327142
0	2977954	89.580535383539	3.565447276119
0	2978660	89.593922196759	3.578834089339
0	2979632	89.612608817279	3.597520709859
0	3001272	90.057917207447	0.04245523474701
0	3001308	90.058635582894	0.043173610194003
0	3001344	90.059353958341	0.043891985640997
0	3045826	90.918631554314	3.903354769149
0	3045905	90.919957185166	3.904680400001
0	3046298	90.927465756588	3.912188971423
0	3046364	90.92864210487	3.913365319705
0	3046455	90.93030378139	3.915026996225
0	3047468	90.949114803346	3.933838018181
0	3047659	90.952745654492	3.937468869327
0	3048520	90.969237682548	3.953960897383
0	3049312	90.984507058106	3.969230272941
0	3053186	91.057778547111	0.042316573411
0	3053218	91.058496922558	0.043034948857994
0	3053257	91.059215298005	0.043753324305001
0	3104907	92.058278528593	0.042636375713002
0	3104947	92.05899690404	0.04335475116001
0	3104978	92.059715279487	0.044073126607003
0	3124994	92.426710051838	4.411433265873
0	3125057	92.42788640012	4.412609614155
0	3125443	92.435544254112	4.420267468147
0	3125520	92.436720602394	4.421443816429
0	3125578	92.437896950676	4.422620164711
0	3126620	92.45719330087	4.441916514905
0	3126926	92.462588674439	4.447311888474
0	3127712	92.476948631046	4.461671845081
0	3128629	92.494350078053	4.479073292088
0	3155129	93.058284965997	0.042642810717012
0	3155165	93.059003341444	0.043361186164006
0	3155212	93.059721716891	0.044079561611014
0	3196340	93.840092512661	4.824630542511
0	3196405	93.841268860943	4.825806890793
0	3196828	93.848926714935	4.833464744785
0	3196892	93.850103063217	4.834641093067
0	3196959	93.851279411499	4.835817441349
0	3197978	93.870575761693	4.855113791543
0	3198207	93.87479478698	4.85933281683
0	3199047	93.890331091869	4.874869121719
0	3199813	93.904791668171	4.889329698021
0	3207922	94.058364963487	0.042545819556992
0	3207964	94.059083338934	0.043264195003999
0	3208005	94.059801714381	0.043982570450993
0	3262254	95.058666542838	0.042671963111999
0	3262309	95.059384918285	0.043390338559007
0	3262344	95.060103293732	0.044108714006001
0	3279410	95.376715399079	5.361253426379
0	3279453	95.377579717235	5.362117744535
0	3279877	95.385237571227	5.369775598527
0	3279950	95.386413919509	5.370951946809
0	3280016	95.387739550361	5.372277577661
0	3281070	95.406886617985	5.391424645285
0	3281320	95.411693817413	5.396231844713
0	3282126	95.426641948161	5.411179975461
0	3283041	95.444631569309	5.429169596609
0	3313020	96.058369138984	0.042200648964993
0	3313063	96.059087514431	0.042919024412001
0	3313113	96.059805889878	0.043637399858994
0	3354360	96.818018188544	5.802556214844
0	3354432	96.819194536826	5.803732563126
0	3354842	96.826852390818	5.811390417118
0	3354907	96.8280287391	5.8125667654
0	3354974	96.829205087382	5.813743113682
0	3355996	96.848501437576	5.833039463876
0	3356506	96.858014030132	5.842552056432
0	3357060	96.868256767752	5.852794794052
0	3358196	96.889775433746	5.874313460046
0	3367313	97.058662946766	0.042322043553995
0	3367351	97.059381322213	0.043040419001002
0	3367395	97.06009969766	0.043758794447996
0	3421184	98.058776822259	0.042435918696995
0	3421229	98.059495197706	0.043154294144003
0	3421276	98.060213573153	0.043872669590996
0	3440341	98.40961741409	6.39397526121
0	3440407	98.410793762372	6.395151609492
0	3440846	98.418451616364	6.402809463484
0	3440921	98.419627964646	6.403985811766
0	3440982	98.420804312928	6.405162160048
0	3442011	98.440100663122	6.424458510242
0	3442540	98.450201429819	6.434559276939
0	3443098	98.460214186467	6.444572033587
0	3444304	98.481962833433	6.466320680553
0	3472355	99.05951547625	0.043005083663004
0	3472404	99.060233851697	0.043723459109998
0	3472449	99.060952227144	0.044441834557006
0	3519794	99.910637821922	6.894995666642
0	3519865	99.911814170204	6.896172014924
0	3520319	99.919472024196	6.903829868916
0	3520397	99.920648372478	6.905006217198
0	3520471	99.92182472076	6.90618256548
0	3521542	99.941121070954	6.925478915674
0	3522061	99.950045489369	6.934403334089
0	3522643	99.96087640113	6.94523424585
0	3523846	99.984159589547	6.968517434267
0	3531370	100.120982409584	0.104472016347
0	3531416	100.121700785031	0.105190391794
0	3531472	100.122419160478	0.105908767241
0	3584263	101.073473518069	0.056963122832002
0	3584306	101.074191893516	0.05768149827901
0	3584352	101.074910268963	0.058399873726003
0	3610676	101.545173759761	7.529354615831
0	3610763	101.546662138169	7.530842994239
0	3611123	101.554007962035	7.538188818105
0	3611186	101.555184310317	7.539365166387
0	3611243	101.556360658599	7.540541514669
0	3611997	101.571053421965	7.555234278035
0	3612216	101.575657008793	7.559837864863
0	3613170	101.595412338969	7.579593195039
0	3613396	101.599873954874	7.584054810944
0	3634032	102.058876332258	0.042200648964993
0	3634067	102.059594707705	0.042919024412001
0	3634111	102.060313083152	0.043637399858994
0	3688428	103.059759418437	0.042918447087999
0	3688474	103.060477793884	0.043636822535007
0	3688517	103.061196169331	0.044355197982
0	3689093	103.071485655656	8.05549107593
0	3689201	103.073250178079	8.057255598353
0	3689602	103.08031985793	8.064325278204
0	3689668	103.081496206212	8.065501626486
0	3689774	103.083410011205	8.067415431479
0	3690810	103.102092851703	8.086098271977
0	3691388	103.112657845526	8.0966632658
0	3691895	103.121724234864	8.105729655138
0	3693258	103.147360119845	8.131365540119
0	3741894	104.059041622314	0.042200648965007
0	3741931	104.059759997761	0.042919024412001
0	3741981	104.060478373208	0.043637399859008
0	3776854	104.715432379751	8.699263889732
0	3776923	104.716608728033	8.700440238014
0	3777267	104.724266582025	8.708098092006
0	3777332	104.725442930307	8.709274440288
0	3777387	104.726619278589	8.71045078857
0	3778270	104.745915628783	8.729747138764
0	3778316	104.746605609224	8.730437119205
0	3779159	104.765670958959	8.74950246894
0	3779637	104.776014316274	8.759845826255
0	3792974	105.060076109744	0.043235135745007
0	3793011	105.060794485191	0.043953511192001
0	3793057	105.061512860638	0.044671886639009
0	3845156	106.05931020096	0.042299737936005
0	3845199	106.060028576407	0.043018113382999
0	3845241	106.060746951854	0.043736488830007
0	3858887	106.301738038028	9.285397134816
0	3858956	106.30291438631	9.286573483098
0	3859354	106.310572240302	9.29423133709
0	3859424	106.311748588584	9.295407685372
0	3859485	106.312924936866	9.296584033654
0	3860553	106.33222128706	9.315880383848
0	3861127	106.342322053757	9.325981150545
0	3861657	106.351976617236	9.335635714024
0	3862929	106.375847979794	9.359507076582
0	3900047	107.059718413886	0.04270795051201
0	3900094	107.060436789333	0.043426325959004
0	3900132	107.06115516478	0.044144701406012
0	3947270	107.970976250186	9.954635346624
0	3947372	107.972740772609	9.956399869047
0	3947720	107.97981045246	9.963469548898
0	3947784	107.980986800742	9.96464589718
0	3947866	107.982751323165	9.966410419603
0	3948751	108.001459499218	9.985118595656
0	3948817	108.0027376538	9.986396750238
0	3949674	108.021214829394	10.004873925832
0	3950085	108.03214636085	10.015805457288
0	3950900	108.059383525532	0.042200648965007
0	3950921	108.060101900979	0.042919024412001
0	3950942	108.060820276426	0.043637399859008
0	4002607	109.060356491586	0.042999704726
0	4002655	109.061074867033	0.043718080173008
0	4002699	109.06179324248	0.044436455620001
0	4030319	109.580808874103	10.564298481516
0	4030413	109.582573396526	10.566063003939
0	4030781	109.589643076377	10.57313268379
0	4030849	109.590819424659	10.574309032072
0	4030952	109.592583947082	10.576073554495
0	4031953	109.611830946179	10.595320553592
0	4032387	109.62021654155	10.603706148963
0	4032987	109.631047453311	10.614537060724
0	4034211	109.653154293446	10.636643900859
0	4054315	110.028581707418	0.011049484761998
0	4054959	110.03957685133	0.022044628673996
0	4054990	110.040130373381	0.022598150725003
0	4055033	110.040683895432	0.023151672775995
0	4055509	110.049368600411	0.031836377754999
0	4055565	110.050244744453	0.032712521796995
0	4056099	110.059731245457	0.042199022801
0	4056680	110.070025591948	0.052493369291994
0	4102929	111.029191606811	0.011482395504999
0	4103523	111.03975383998	0.022044628673996
0	4103567	111.040307362031	0.022598150725003
0	4103607	111.040860884082	0.023151672775995
0	4104084	111.049737713133	0.032028501827
0	4104170	111.051051929196	0.033342717889994
0	4104706	111.060621448276	0.042912236969997
0	4105265	111.070202580598	0.052493369291994
0	4105778	111.07888841123	11.062378017993
0	4105860	111.080064759512	11.063554366275
0	4106314	111.087722613504	11.071212220267
0	4106384	111.088898961786	11.072388568549
0	4106450	111.090075310068	11.073564916831
0	4107548	111.109371660262	11.092861267025
0	4108614	111.129126990438	11.112616597201
0	4112663	111.206522199827	11.19001180659
0	4116129	111.272397703619	11.255887310382
0	4154409	112.028585357748	0.010876144042001
0	4155832	112.059734895787	0.042025682081004
0	4156337	112.070202582998	0.052493369291994
0	4159939	112.149324542111	0.131615328405
0	4159966	112.149878064162	0.132168850456
0	4160017	112.150815648734	0.133106435028
0	4160392	112.158968565221	0.141259351515
0	4160435	112.159722109443	0.142012895737
0	4196112	112.791651509822	11.775141114585
0	4196194	112.792827858104	11.776317462867
0	4196651	112.800485712096	11.783975316859
0	4196722	112.801662060378	11.785151665141
0	4196798	112.80283840866	11.786328013423
0	4197967	112.822134758854	11.805624363617
0	4199135	112.84189008903	11.825379693793
0	4200105	112.858703361896	11.842192966659
0	4202095	112.893405636215	11.876895240978
0	4210058	113.029023428769	0.011134035883003
0	4211974	113.060172966808	0.042283573922006
0	4212575	113.070382762178	0.052493369292009
0	4222382	113.243299767852	0.225410374966
0	4222416	113.243853289903	0.22596389701701
0	4222444	113.244406811954	0.226517419068
0	4222920	113.253310991698	0.23542159881201
0	4222982	113.25418713574	0.23629774285401
0	4264245	114.028765537928	0.010876144042001
0	4266073	114.060220448888	0.042331055002009
0	4266664	114.070382763178	0.052493369292009
0	4287219	114.463024985466	0.44513559158
0	4287261	114.463578507517	0.445689113631
0	4287298	114.464132029568	0.446242635682
0	4287735	114.472669008576	0.45477961469
0	4287789	114.473422552798	0.455533158912
0	4293608	114.586170814013	12.56949513072
0	4293676	114.587347162295	12.570671479002
0	4294083	114.595005016287	12.578329332994
0	4294166	114.596181364569	12.579505681276
0	4294229	114.597357712851	12.580682029558
0	4295257	114.617192886089	12.600517202796
0	4295356	114.619108565909	12.602432882616
0	4296244	114.636409393221	12.619733709928
0	4296674	114.644400053972	12.627724370679
0	4316606	115.028765540478	0.010876144041987
0	4318040	115.059915078517	0.04202568208099
0	4318535	115.070382765728	0.052493369291994
0	4345039	115.562467602158	0.54457820572199
0	4345079	115.563021124209	0.545131727773
0	4345120	115.56357464626	0.54568524982399
0	4345628	115.572111625268	0.55422222883199
0	4345688	115.57298776931	0.555098372874
0	4371230	116.028950724663	0.010876144041987
0	4373132	116.060100262702	0.04202568208099
0	4373784	116.070624927894	0.052550347272998
0	4386114	116.285405907362	13.268564936013
0	4386225	116.287170429785	13.270329458436
0	4386625	116.294240109636	13.277399138287
0	4386687	116.295416457918	13.278575486569
0	4386809	116.297180980341	13.280340008992
0	4387854	116.315889156394	13.299048185045
0	4388406	116.325989923091	13.309148951742
0	4388912	116.33564448657	13.318803515221
0	4390133	116.359515849128	13.342674877779
0	4402228	116.616182949078	0.59810836845699
0	4402256	116.616736471129	0.598661890508
0	4402284	116.61728999318	0.59921541255899
0	4402676	116.625826972188	0.60775239156699
0	4402719	116.62658051641	0.608505935789
0	4424483	117.029453037729	0.011378456307995
0	4426322	117.060602575768	0.042527994346997
0	4426876	117.070567950713	0.052493369291994
0	4467984	117.794654216789	0.77657963536799
0	4468017	117.79520773884	0.77713315741899
0	4468083	117.796145323412	0.77807074199099
0	4468519	117.804422422413	0.78634784099199
0	4468570	117.805298566455	0.78722398503399
0	4478456	118.029139403208	0.010876144042001
0	4479617	118.060288941247	0.042025682081004
0	4480029	118.070756628458	0.052493369292009
0	4480373	118.078748863271	14.061907889922
0	4480428	118.079925211553	14.063084238204
0	4480737	118.087583065545	14.070742092196
0	4480786	118.088759413827	14.071918440478
0	4480833	118.089935762109	14.07309478876
0	4481608	118.109232112303	14.092391138954
0	4481713	118.111686615167	14.094845641818
0	4482400	118.128987442479	14.11214646913
0	4482859	118.141095322217	14.124254348868
0	4518433	118.811588933675	0.79332567450901
0	4518459	118.812142455726	0.79387919656001
0	4518500	118.812695977777	0.79443271861101
0	4518992	118.821232956785	0.80296969761901
0	4519047	118.821986501007	0.80372324184101
0	4530725	119.029386996539	0.010933263683
0	4532508	119.060536534578	0.042082801721989
0	4533058	119.070947102148	0.052493369291994
0	4567270	119.740340811596	14.723499837597
0	4567358	119.741517159878	14.724676185879
0	4567810	119.74917501387	14.732334039871
0	4567879	119.750351362152	14.733510388153
0	4567954	119.751527710434	14.734686736435
0	4569083	119.770824060628	14.753983086629
0	4569522	119.778572130761	14.761731156762
0	4570272	119.791278602745	14.774437628746
0	4571557	119.81327440508	14.796433431081
0	4574556	119.865304280595	0.846850547739
0	4574593	119.865857802646	0.84740406978999
0	4574646	119.866795387218	0.84834165436199
0	4575126	119.875099106314	0.85664537345799
0	4575176	119.875701847927	0.857248115071
0	4583870	120.02952218299	0.010876144042001
0	4585624	120.0608131734	0.042167134452001
0	4586195	120.071367326392	0.052721287444001
0	4635235	120.96623800391	0.947591964962
0	4635260	120.966791525961	0.94814548701301
0	4635290	120.967345048012	0.948699009064
0	4635671	120.97588202702	0.957235988072
0	4635713	120.976635571242	0.95798953229401
0	4638133	121.029716356297	0.010876144042001
0	4639678	121.060865894336	0.042025682081004
0	4640163	121.071333581547	0.052493369291994
0	4663644	121.528978374377	15.511967911353
0	4663755	121.5307428968	15.513732433776
0	4664110	121.537812576651	15.520802113627
0	4664176	121.538988924933	15.521978461909
0	4664278	121.540753447356	15.523742984332
0	4665198	121.559461623409	15.542451160385
0	4665311	121.561916126273	15.544905663249
0	4666208	121.57922066244	15.562210199416
0	4666544	121.586619440195	15.569608977171
0	4684763	121.957326872664	0.938486660409
0	4684792	121.957880394715	0.93904018245999
0	4684858	121.958817979287	0.93997776703199
0	4685341	121.967363413339	0.948523201084
0	4685392	121.968239557381	0.949399345126
0	4688871	122.029912432828	0.010876144042001
0	4690648	122.061061970867	0.042025682081004
0	4691242	122.071529658078	0.052493369291994
0	4736871	122.959847558861	0.940811270075
0	4736904	122.960401080912	0.941364792126
0	4736950	122.961338665484	0.942302376698
0	4737407	122.969516393318	0.95048010453201
0	4737449	122.970245126193	0.95120883740699
0	4740850	123.029912432928	0.010876144042001
0	4742588	123.061061970967	0.042025682081004
0	4743157	123.071529658178	0.052493369291994
0	4745074	123.107637768821	16.090627305447
0	4745168	123.109402291244	16.09239182787
0	4745587	123.116471971095	16.099461507721
0	4745658	123.117648319377	16.100637856003
0	4745755	123.1194128418	16.102402378426
0	4746802	123.138121017853	16.121110554479
0	4747157	123.144692739704	16.12768227633
0	4747872	123.157876348029	16.140865884655
0	4748975	123.1776304916	16.160620028226
0	4795773	124.030150504949	0.011114216062992
0	4796429	124.041893931618	1.022857642732
0	4796460	124.042447453669	1.023411164783
0	4796487	124.04300097572	1.023964686834
0	4796937	124.051537954728	1.032501665842
0	4796987	124.05241409877	1.033377809884
0	4797446	124.061533542452	0.042497253565998
0	4797943	124.071529658178	0.052493369291994
0	4833975	124.78334589653	16.766163019963
0	4834059	124.784522244812	16.767339368245
0	4834483	124.792180098804	16.774997222237
0	4834560	124.793356447086	16.776173570519
0	4834634	124.794532795368	16.777349918801
0	4835759	124.813829145562	16.796646268995
0	4836926	124.833942668907	16.81675979234
0	4837714	124.84804505204	16.830862175473
0	4840879	124.905686117858	16.888503241291
0	4842677	124.935563834336	0.91652754544999
0	4842711	124.936117356387	0.917081067501
0	4842754	124.936670878438	0.91763458955199
0	4843254	124.945207857446	0.92617156855999
0	4843308	124.946084001488	0.927047712602
0	4848048	125.03011445303	0.010876144042001
0	4849815	125.061263991069	0.042025682081004
0	4850394	125.07173167828	0.052493369292009
0	4891719	125.955977800009	0.936739491021
0	4891747	125.95653132206	0.93729301307201
0	4891810	125.957638366162	0.93840005717401
0	4892273	125.965621823119	0.946383514131
0	4892327	125.966497967161	0.94725965817301
0	4895750	126.03011445473	0.010876144042001
0	4897461	126.061263992769	0.042025682081004
0	4898081	126.071973288671	0.052734977983008
0	4917432	126.429645317189	17.412288530329
0	4917535	126.431409839612	17.414053052752
0	4917932	126.438479519463	17.421122732603
0	4918005	126.439655867745	17.422299080885
0	4918107	126.441420390168	17.424063603308
0	4919122	126.460128566221	17.442771779361
0	4919507	126.467288462213	17.449931675353
0	4920201	126.479883896397	17.462527109537
0	4921291	126.499049865827	17.481693078967
0	4947448	126.981859156633	0.962620845945
0	4947483	126.982412678684	0.963174367996
0	4947525	126.982966200735	0.963727890047
0	4948027	126.991503179743	0.972264869055
0	4948101	126.992588681486	0.973350370798
0	4950301	127.030320640247	0.010876144042001
0	4952067	127.061569997032	0.042125500826998
0	4952612	127.072138027899	0.052693531694004
0	4991515	127.836263251612	0.816818755407
0	4991547	127.836816773663	0.81737227745801
0	4991586	127.837370295714	0.817925799509
0	4992069	127.845907274722	0.826462778517
0	4992104	127.846660818944	0.82721632273901
0	5002212	128.03052897198	0.010876144042015
0	5003969	128.061678510019	0.042025682081004
0	5004574	128.07214619723	0.052493369291994
0	5005067	128.081021615584	18.063489392928
0	5005130	128.08205992416	18.064527701504
0	5005200	128.083185023485	18.065652800829
0	5006290	128.102481384532	18.084949161876
0	5043763	128.791068525873	0.771415697935
0	5043796	128.791622047924	0.771969219986
0	5043829	128.792175569975	0.77252274203701
0	5044362	128.80105528854	0.78140246060201
0	5044398	128.801493360561	0.78184053262302
0	5055238	129.030545992369	0.010893163430978
0	5056781	129.061975833834	0.042323004895991
0	5057285	129.07254820545	0.052895376511998
0	5083095	129.625591199212	0.605938370274
0	5083137	129.626144721263	0.60649189232498
0	5083169	129.626698243314	0.60704541437599
0	5083610	129.635235222322	0.61558239338399
0	5083661	129.636111366364	0.61645853742598
0	5086421	129.687325194655	18.669615983349
0	5086484	129.688363503231	18.670654291925
0	5086529	129.689269782919	18.671560571613
0	5087560	129.708784963603	18.691075752297
0	5104684	130.030741736837	0.010876144042015
0	5106374	130.061891274876	0.042025682081004
0	5106940	130.072358962087	0.052493369292023
0	5133078	130.567970584948	0.54810499215301
0	5133107	130.568524106999	0.54865851420402
0	5133171	130.569461691571	0.54959609877602
0	5133624	130.577614608058	0.557749015263
0	5133664	130.57836815228	0.55850255948502
0	5158633	131.031302934915	0.011222290407005
0	5160410	131.063082095252	0.043001450743986
0	5160962	131.073381183908	0.053300539399999
0	5164804	131.144682676347	19.126973462641
0	5165132	131.151805646071	19.134096432365
0	5165172	131.152629404953	19.134920191247
0	5166176	131.174334902506	19.1566256888
0	5175989	131.386588120975	0.36650747646701
0	5176028	131.387141643026	0.36706099851799
0	5176063	131.387695165077	0.36761452056899
0	5176541	131.396232144085	0.37615149957699
0	5176580	131.396985688307	0.37690504379898
0	5211228	132.031174178254	0.010876144041987
0	5212898	132.062323716293	0.042025682081004
0	5213458	132.072791403504	0.052493369291994
0	5219409	132.181771726636	19.16388233375
0	5219486	132.182810035212	19.164920642326
0	5219523	132.1837163149	19.165826922014
0	5220631	132.203231495584	19.185342102698
0	5226767	132.313062369399	0.292764335187
0	5226821	132.31361589145	0.29331785723798
0	5226854	132.314169413501	0.29387137928899
0	5227326	132.322706392509	0.30240835829699
0	5227372	132.323459936731	0.30316190251898
0	5266715	133.031392471055	0.011094435843006
0	5268412	133.06282231252	0.04252427730799
0	5268952	133.072791404504	0.052493369291994
0	5270797	133.108319234999	0.088021199786994
0	5270828	133.10887275705	0.088574721838
0	5270862	133.109426279101	0.089128243889007
0	5271253	133.117963258109	0.097665222897007
0	5271292	133.118716802331	0.098418767119
0	5271916	133.132261138492	19.114371744606
0	5271977	133.133299447068	19.115410053182
0	5272018	133.134205726756	19.11631633287
0	5272920	133.154079100609	19.136189706723
0	5318671	134.031396400476	0.010876144041987
0	5319358	134.043272285037	0.022752028603009
0	5319392	134.043825807088	0.023305550653987
0	5319432	134.044379329139	0.023859072704994
0	5319917	134.052916308147	0.032396051712993
0	5319972	134.053792452189	0.033272195754989
0	5320439	134.062819869518	0.042299613083998
0	5320971	134.07340393704	0.052883680605987
0	5323918	134.129078267781	19.111188871345
0	5324391	134.138477512405	19.120588115969
0	5324433	134.139301271287	19.121411874851
0	5325514	134.16100676884	19.143117372404
0	5371168	135.032063441997	0.011318467011989
0	5371827	135.043204712116	0.022459737130987
0	5371868	135.043758234167	0.023013259181994
0	5371904	135.044311756218	0.023566781233001
0	5372393	135.053212028092	0.032467053106984
0	5372422	135.053650100113	0.032905125127996
0	5372946	135.063493283462	0.042748308477002
0	5373469	135.073238344277	0.052493369291994
0	5376973	135.143816700712	19.125742120091
0	5377030	135.144855009288	19.126780428667
0	5377079	135.145761288976	19.127686708355
0	5377985	135.16527646966	19.147201889039
0	5422768	136.031848390554	0.010876144041987
0	5423472	136.043186835534	0.022214589021985
0	5423504	136.043740357585	0.022768111072992
0	5423536	136.044293879636	0.023321633123999
0	5424011	136.052830858644	0.031858612131998
0	5424084	136.053707002686	0.032734756173994
0	5424590	136.063261758586	0.042289512074007
0	5425020	136.071367321069	19.053292739648
0	5425103	136.0727679307	19.054693349279
0	5425130	136.073311909333	19.055237327912
0	5425157	136.073850876613	0.052878630100992
0	5426176	136.093185283186	19.075110701765
0	5474828	137.032078273561	0.010876144041987
0	5475550	137.044048209645	0.022846080125987
0	5475584	137.044601731696	0.023399602176994
0	5475607	137.045155253747	0.023953124228001
0	5476082	137.053692232755	0.032490103236
0	5476128	137.054445776977	0.033243647457994
0	5476477	137.061126360666	19.0428631015
0	5476589	137.06314159159	19.044878332424
0	5476621	137.063593646627	0.042391517108001
0	5476640	137.063965350472	19.045702091306
0	5477168	137.073695498811	0.052493369291994
0	5477793	137.085670848025	19.067407588859
0	5524484	138.032283789442	0.011081657923
0	5524626	138.034692603727	19.016238870871
0	5524698	138.035730912303	19.017277179447
0	5524748	138.036637191991	19.018183459135
0	5525139	138.043246760193	0.022044628673996
0	5525174	138.043800282244	0.022598150725003
0	5525206	138.044353804295	0.023151672775981
0	5525681	138.052890783303	0.031688651783981
0	5525744	138.053766927345	0.032564795826005
0	5525888	138.056510565844	19.038056832988
0	5526266	138.063433327481	0.042231195961989
0	5526805	138.073695500811	0.052493369291994
0	5572270	138.967059655012	18.948413616064
0	5572365	138.968751643104	18.950105604156
0	5572372	138.968893205476	18.950247166528
0	5573329	138.98840838616	18.969762347212
0	5575522	139.032078277061	0.010876144042015
0	5576165	139.043508503116	0.022306370096999
0	5576202	139.044062025167	0.022859892148006
0	5576255	139.044999609739	0.023797476720006
0	5576709	139.053268753243	0.032066620224015
0	5576757	139.054221134195	0.033019001176001
0	5577230	139.063328576132	0.042126443113006
0	5577744	139.073695502311	0.052493369292023
0	5619537	139.938030657651	18.919190445396
0	5619798	139.943343487021	18.924503274766
0	5619843	139.944167245903	18.925327033648
0	5620983	139.966396011871	18.947555799616
0	5624271	140.032316371899	0.010876144041987
0	5624913	140.044044427267	0.022604199410011
0	5624946	140.044597949318	0.02315772146099
0	5625000	140.04570499342	0.024264765563004
0	5625412	140.053688450377	0.032248222519996
0	5625469	140.054441994599	0.03300176674199
0	5625959	140.063465909938	0.042025682081004
0	5626569	140.073933597149	0.052493369291994
0	5667273	140.890278058282	18.871241769496
0	5667343	140.891316366858	18.872280078072
0	5667386	140.892222646546	18.87318635776
0	5668362	140.912096020399	18.893059731613
0	5674281	141.032800202693	0.011119012731001
0	5674945	141.044509141525	0.022827951562988
0	5674980	141.045062663576	0.023381473613995
0	5675010	141.045616185627	0.023934995664973
0	5675464	141.054264651075	0.032583461112978
0	5675498	141.054906708857	0.033225518894994
0	5675969	141.063949740732	0.04226855076999
0	5676486	141.074174559254	0.052493369291994
0	5711787	141.788419971589	18.769383682703
0	5711839	141.789458280165	18.770421991279
0	5711893	141.790844115782	18.771807826896
0	5712809	141.810276421268	18.791240132382
0	5722563	142.032801236343	0.010876144042015
0	5724050	142.063950774382	0.042025682081004
0	5724621	142.074840854927	0.052915762626014
0	5725202	142.086026740626	0.064101648325021
0	5725227	142.086580262677	0.064655170376
0	5725296	142.087687306779	0.065762214478013
0	5725730	142.096011112823	0.074086020522003
0	5725755	142.096449184844	0.074524092543015
0	5759056	142.762436349085	18.743400060199
0	5759131	142.763665433143	18.744629144257
0	5759169	142.764380937349	18.745344648463
0	5760114	142.783896118033	18.764859829147
0	5772593	143.033048148923	0.010876144042015
0	5773214	143.044216633555	0.022044628674024
0	5773247	143.044770155606	0.022598150725003
0	5773268	143.045323677657	0.023151672776009
0	5773707	143.054298148923	0.032126144042024
0	5773739	143.054736220944	0.032564216063008
0	5774169	143.064197686962	0.042025682081004
0	5774676	143.074784080549	0.052612075668009
0	5802936	143.661754610674	18.642516301686
0	5802997	143.66279291925	18.643554610262
0	5803071	143.664017191147	18.644778882159
0	5804005	143.683572572791	18.664334263803
0	5821162	144.033048148923	0.010876144042015
0	5821774	144.044463669096	0.022291664215004
0	5821809	144.045017191147	0.022845186266011
0	5821854	144.045954775719	0.023782770838011
0	5822292	144.054567136268	0.032395131387005
0	5822327	144.055117745109	0.032945740228001
0	5822758	144.064197686962	0.042025682081004
0	5823294	144.074665374173	0.052493369292023
0	5844131	144.539992609649	18.520754298961
0	5844219	144.541081157729	18.521842847041
0	5844269	144.541843191451	18.522604880763
0	5845303	144.561358372135	18.542120061447
0	5868601	145.033233056537	0.011061051506005
0	5869190	145.04443262397	0.022260618939015
0	5869216	145.044986146021	0.022814140989993
0	5869249	145.045539668072	0.023367663041
0	5869698	145.054330200321	0.032158195290009
0	5869730	145.054830191302	0.032658186270993
0	5870229	145.064662898002	0.042490892970989
0	5870744	145.074665374323	0.052493369291994
0	5891019	145.493584125127	18.474139628922
0	5891074	145.494367194324	18.474922698119
0	5891119	145.495282975548	18.475838479343
0	5892054	145.514788654696	18.495344158491
0	5916551	146.033304557729	0.010876144041987
0	5917186	146.044906938018	0.022478524330978
0	5917215	146.045460460069	0.023032046381985
0	5917245	146.04601398212	0.023585568432992
0	5917675	146.054603259049	0.032174845361993
0	5917731	146.055642220089	0.033213806401989
0	5918158	146.064659650703	0.042231237015983
0	5918667	146.075277906259	0.052849492571994
0	5933269	146.387353580068	18.36770075213
0	5933331	146.388391888644	18.368739060706
0	5933382	146.389298168332	18.369645340394
0	5934293	146.408813349016	18.389160521078
0	5962646	147.033304558729	0.010876144041987
0	5964066	147.064454096768	0.042025682081004
0	5964608	147.074921783979	0.052493369291994
0	5964701	147.076489676967	0.054061262279987
0	5964734	147.077043199018	0.054614784330994
0	5964803	147.07815024312	0.055721828433008
0	5965189	147.086133700077	0.06370528539
0	5965247	147.087009844119	0.064581429431996
0	5976421	147.320253286594	18.300600457656
0	5976475	147.32123607627	18.301583247332
0	5976515	147.322142355958	18.30248952702
0	5977461	147.342071248711	18.322418419773
0	6009617	148.033304559729	0.010876144042015
0	6010241	148.044940799653	0.022512383966017
0	6010270	148.045494321704	0.023065906016996
0	6010328	148.046431906276	0.024003490588996
0	6010721	148.054637893089	0.032209477402006
0	6010760	148.055338366985	0.032909951297995
0	6011175	148.064454097768	0.042025682081004
0	6011662	148.074921784979	0.052493369291994
0	6017249	148.191283670515	18.17141807772
0	6017315	148.192321979091	18.172456386296
0	6017359	148.193228258779	18.173362665984
0	6018290	148.213101632632	18.193236039837
0	6057213	149.033304560979	0.010876144041987
0	6057762	149.044473045611	0.022044628673996
0	6057798	149.045026567662	0.022598150725003
0	6057837	149.045580089713	0.023151672775981
0	6058228	149.054117068721	0.031688651783981
0	6058274	149.054870612943	0.032442196006002
0	6058763	149.064816276362	0.042387859424991
0	6059297	149.075267653098	0.052839236160992
0	6060736	149.104773630388	18.08469298588
0	6060782	149.105756420064	18.085675775556
0	6060819	149.106662699752	18.086582055244
0	6061691	149.126177880436	18.106097235928
0	6098904	149.954097089992	17.93379905578
0	6098980	149.955079879668	17.934781845456
0	6099020	149.955986159356	17.935688125144
0	6099991	149.975915052109	17.955617017897
0	6102745	150.033640163481	0.010941477274002
0	6103332	150.044743314881	0.022044628673996
0	6103359	150.045296836932	0.022598150725003
0	6103393	150.045850358983	0.023151672775981
0	6103821	150.054387337991	0.031688651783981
0	6103871	150.055140882213	0.032442196006002
0	6104369	150.065125883537	0.042427197329999
0	6104860	150.075264048495	0.052565362287993
0	6140340	150.848121784312	17.8278237491
0	6140402	150.84919126938	17.828893234168
0	6140445	150.850010853676	17.829712818464
0	6141425	150.869833958336	17.849535923124
0	6149028	151.033738930617	0.011040243460002
0	6149605	151.044743315831	0.022044628673996
0	6149636	151.045296837882	0.022598150725003
0	6149670	151.045850359933	0.023151672775981
0	6150091	151.054387338941	0.031688651783981
0	6150148	151.055519275661	0.032820588503995
0	6150570	151.064888468656	0.04218978149899
0	6151054	151.075192056449	0.052493369291994
0	6178754	151.673918278276	17.653398021842
0	6178809	151.674901067952	17.654380811518
0	6178874	151.67580734764	17.655287091206
0	6179808	151.695322528324	17.67480227189
0	6195488	152.033735126242	0.011036438285004
0	6196062	152.044904054379	0.022205366422014
0	6196090	152.04545757643	0.022758888473021
0	6196124	152.046011098481	0.023312410523999
0	6196549	152.054701592574	0.032002904617002
0	6196578	152.055301621711	0.032602933754021
0	6197047	152.064884664281	0.042185976324021
0	6197551	152.075192057249	0.052493369291994
0	6217816	152.549121400084	17.528376425099
0	6217870	152.55010418976	17.529359214775
0	6217906	152.551010469448	17.530265494463
0	6218730	152.570525650132	17.549780675147
0	6239992	153.033574832549	0.010876144041987
0	6240582	153.04532300864	0.022624320132991
0	6240617	153.045876530691	0.023177842183998
0	6240640	153.046430052742	0.023731364235005
0	6241039	153.05496703175	0.032268343243004
0	6241087	153.055843175792	0.033144487285
0	6241529	153.064988609303	0.04228992079598
0	6241971	153.075192057799	0.052493369291994
0	6254164	153.349626405985	17.328654159473
0	6254226	153.350609195661	17.329636949149
0	6254261	153.351515475349	17.330543228837
0	6255201	153.371444368102	17.35047212159
0	6284996	154.033574833549	0.010876144042015
0	6285579	154.044954639436	0.02225594992899
0	6285620	154.045508161487	0.022809471979997
0	6285679	154.046445746059	0.023747056551997
0	6286046	154.054598662546	0.031899973039003
0	6286081	154.055352206768	0.032653517260997
0	6286509	154.064724371588	0.042025682081004
0	6286976	154.075192058799	0.052493369291994
0	6292831	154.20536426224	17.184162132721
0	6292885	154.206618311533	17.185416182014
0	6292913	154.207308850504	17.186106720985
0	6293874	154.227182224357	17.205980094838
0	6328150	154.979567988496	16.958365856977
0	6328199	154.980439740372	16.959237608853
0	6328269	154.981687038832	16.960484907313
0	6329112	155.000861200744	16.979659069225
0	6330534	155.033864687021	0.010876144042015
0	6331053	155.045206424243	0.022217881263998
0	6331076	155.045759946294	0.022771403315005
0	6331122	155.046697530866	0.023708987887005
0	6331464	155.054850447353	0.031861904374011
0	6331513	155.055603991575	0.032615448596005
0	6331951	155.065368862844	0.042380319865003
0	6332395	155.075481912271	0.052493369291994
0	6364346	155.815196886157	16.793994753138
0	6364413	155.816235194733	16.795033061714
0	6364456	155.817141474421	16.795939341402
0	6365313	155.837053335836	16.815851202817
0	6374314	156.034158804468	0.010876144042015
0	6374905	156.045844843029	0.022562182602996
0	6374936	156.04639836508	0.023115704654003
0	6374966	156.046951887131	0.02366922670501
0	6375369	156.055488866139	0.03220620571301
0	6375428	156.056365010181	0.033082349755006
0	6375844	156.065308342507	0.042025682081004
0	6376368	156.075776029718	0.052493369291994
0	6398344	156.564586260691	16.543146032834
0	6398404	156.565800596071	16.544360368214
0	6398432	156.566475330055	16.545035102198
0	6399282	156.585990510739	16.564550282882
0	6418775	157.034298370076	0.011015708599984
0	6419319	157.04532729015	0.022044628673996
0	6419346	157.045880812201	0.022598150725003
0	6419370	157.046434334252	0.023151672775981
0	6419764	157.05497131326	0.031688651783981
0	6419816	157.055847457302	0.032564795826005
0	6420242	157.065728211541	0.042445550064997
0	6420674	157.075776030768	0.052493369291994
0	6433812	157.380971968399	16.359290778437
0	6433861	157.381954758075	16.360273568113
0	6433897	157.382861037763	16.361179847801
0	6434711	157.402376218447	16.380695028485
0	6461068	158.034461835721	0.010876144042015
0	6461555	158.045970241045	0.022384549365995
0	6461581	158.046523763096	0.022938071417002
0	6461617	158.047461347668	0.023875655989002
0	6461951	158.055614264155	0.032028572476008
0	6461981	158.056367808377	0.032782116698002
0	6462351	158.06561137376	0.042025682081004
0	6462784	158.076079060971	0.052493369291994
0	6464362	158.111384912721	16.08945982042
0	6465081	158.125186968439	16.103261876138
0	6465130	158.126010727321	16.10408563502
0	6466026	158.143872316838	16.121947224537
0	6499021	158.902689508966	15.880517504085
0	6499040	158.902973086701	15.88080108182
0	6499080	158.903879366389	15.881707361508
0	6499974	158.923394547073	15.901222542192
0	6504825	159.034461836721	0.010876144041987
0	6505432	159.04626934521	0.022683652530986
0	6505460	159.046822867261	0.023237174581993
0	6505490	159.047376389312	0.023790696633
0	6505894	159.05591336832	0.032327675641
0	6505946	159.056961836721	0.033376144041995
0	6506319	159.06561137476	0.042025682081004
0	6506770	159.076079061971	0.052493369291994
0	6532951	159.688911778783	15.666739773902
0	6533013	159.689950087359	15.667778082478
0	6533059	159.690856367047	15.668684362166
0	6533964	159.710371547731	15.68819954285
0	6548202	160.034461836721	0.010876144041987
0	6548793	160.045999392435	0.022413699755987
0	6548831	160.046552914486	0.022967221806994
0	6548887	160.047490499058	0.023904806378994
0	6549264	160.056049138277	0.032463445597983
0	6549320	160.056925282319	0.033339589639979
0	6549681	160.06561137476	0.042025682081004
0	6550148	160.076443095473	0.05285740279399
0	6562883	160.377131042653	15.354959037622
0	6562942	160.378113832329	15.355941827298
0	6562973	160.379020112017	15.356848106986
0	6563848	160.39894900477	15.376776999739
0	6589057	161.034779295588	0.010876144042015
0	6589527	161.046127355444	0.022224203897991
0	6589555	161.046680877495	0.022777725948998
0	6589581	161.047234399546	0.023331248000005
0	6589924	161.055771378554	0.031868227008005
0	6589955	161.056524922776	0.032621771229998
0	6590327	161.065928833627	0.042025682081004
0	6590741	161.076396520838	0.052493369291994
0	6593527	161.144110122517	15.12168170883
0	6593595	161.145092912193	15.122664498506
0	6593627	161.145999191881	15.123570778194
0	6594499	161.16561797672	15.143189563033
0	6622566	161.809295424233	14.786867009546
0	6623332	161.825647181206	14.803218766519
0	6623366	161.826470940088	14.804042525401
0	6623889	161.838521042026	14.816092627339
0	6632157	162.035101875733	0.010876144042015
0	6632659	162.046270360365	0.022044628673996
0	6632691	162.046823882416	0.022598150725003
0	6632719	162.047377404467	0.023151672776009
0	6633065	162.055914383475	0.031688651784009
0	6633114	162.056667927697	0.032442196006002
0	6633499	162.066251413772	0.042025682081004
0	6633944	162.076992797705	0.052767066014013
0	6653928	162.553908019594	14.531479603907
0	6653989	162.55494632817	14.532517912483
0	6654032	162.555852607858	14.533424192171
0	6654886	162.575725981711	14.553297566024
0	6674349	163.035429743185	0.010876144042015
0	6674901	163.046767394506	0.022213795363001
0	6674930	163.047320916557	0.022767317414008
0	6674971	163.048258501129	0.023704901986008
0	6675364	163.05709640983	0.032542810687005
0	6675389	163.057534481851	0.032980882708017
0	6675766	163.066579281224	0.042025682081004
0	6676236	163.077307562855	0.052753963712007
0	6684878	163.290945737167	14.26851732023
0	6684934	163.291928526843	14.269500109906
0	6684967	163.292834806531	14.270406389594
0	6685777	163.312349987215	14.289921570278
0	6710908	163.91611933015	13.893420643943
0	6710960	163.917157638726	13.894458952519
0	6711008	163.918063918414	13.895365232207
0	6711762	163.937579099098	13.914880412891
0	6715637	164.035763075518	0.010876144041987
0	6716145	164.047416737857	0.022529806380987
0	6716175	164.047970259908	0.023083328431994
0	6716212	164.04890784448	0.024020913003994
0	6716568	164.057060760967	0.032173829491001
0	6716623	164.058169330446	0.033282398969988
0	6716958	164.066912613557	0.042025682081004
[...]
0	7778772	204.110933819402	0.074018083754993
0	7789340	205.047791879739	0.010876144042015
0	7789553	205.058960364371	0.022044628673996
0	7789573	205.059513886422	0.022598150725003
0	7789585	205.060067408473	0.023151672776009
0	7789724	205.068604387481	0.031688651784009
0	7789746	205.069357931703	0.032442196006002
0	7789873	205.078941417778	0.042025682081004
0	7790026	205.089409104989	0.052493369291994
0	7790038	205.089866318001	0.052950582303993
0	7790052	205.09051235908	0.053596623383015
0	7790069	205.091418638768	0.054502903071011
0	7790306	205.110933819452	0.074018083754993
0	7800729	206.047791879789	0.010876144042015
0	7800958	206.058960364421	0.022044628673996
0	7800982	206.059513886472	0.022598150725003
0	7800999	206.060067408523	0.023151672776009
0	7801129	206.068604387531	0.031688651784009
0	7801163	206.069357931753	0.032442196006002
0	7801297	206.078941417828	0.042025682081004
0	7801453	206.089409105039	0.052493369291994
0	7801465	206.089866318051	0.052950582304021
0	7801486	206.09051235913	0.053596623383015
0	7801508	206.091418638818	0.054502903071011
0	7801733	206.110933819502	0.074018083755021
0	7812862	207.047791879789	0.010876144042015
0	7813108	207.058960364421	0.022044628673996
0	7813123	207.059513886472	0.022598150725003
0	7813145	207.060451471044	0.023535735297003
0	7813275	207.068604387531	0.031688651784009
0	7813309	207.069357931753	0.032442196006002
0	7813441	207.078941417828	0.042025682081004
0	7813597	207.089409105039	0.052493369291994
0	7813602	207.089866318051	0.052950582304021
0	7813624	207.09051235913	0.053596623383015
0	7813639	207.091418638818	0.054502903071011
0	7813851	207.110933819502	0.074018083755021
0	7825509	208.048744260341	0.010876144041987
0	7825740	208.059912744973	0.022044628673996
0	7825761	208.060466267024	0.022598150725003
0	7825780	208.061019789075	0.023151672776009
0	7825911	208.069556768083	0.031688651784009
0	7825945	208.070310312305	0.032442196006002
0	7826087	208.07989379838	0.042025682081004
0	7826259	208.090361485591	0.052493369291994
0	7826271	208.090818698603	0.052950582303993
0	7826293	208.091464739682	0.053596623382987
0	7826311	208.09237101937	0.054502903071011
0	7826607	208.111979215054	0.074111098754997
0	7838550	209.04965335115	0.010876144042015
0	7838785	209.060821835782	0.022044628674024
0	7838800	209.061375357833	0.022598150725003
0	7838822	209.061928879884	0.023151672776009
0	7838969	209.070522916358	0.031745709250004
0	7838997	209.071219403114	0.032442196006002
0	7839144	209.080802889189	0.042025682081004
0	7839338	209.09168972683	0.052912519722014
0	7839359	209.092141781867	0.053364574759001
0	7839366	209.092373830491	0.053596623383015
0	7839386	209.093280110179	0.054502903071011
0	7839670	209.112795290863	0.074018083755021
0	7850708	210.050522915917	0.010876144041987
0	7850906	210.061691400549	0.022044628673996
0	7850929	210.0622449226	0.022598150725003
0	7850946	210.062798444651	0.023151672776009
0	7851060	210.071335423659	0.031688651784009
0	7851085	210.072088967881	0.032442196006002
0	7851215	210.081672453956	0.042025682081004
0	7851362	210.092140141167	0.052493369291994
0	7851375	210.092597354179	0.052950582303993
0	7851395	210.093243395258	0.053596623382987
0	7851405	210.094149674946	0.054502903070983
0	7851640	210.11366485563	0.074018083754993
0	7863276	211.05135624885	0.010876144042015
0	7863528	211.062524733482	0.022044628674024
0	7863550	211.063078255533	0.022598150725003
0	7863564	211.063631777584	0.023151672776009
0	7863703	211.072168756592	0.031688651784009
0	7863735	211.072922300814	0.032442196006002
0	7863891	211.082505786889	0.042025682081004
0	7864062	211.0929734741	0.052493369292023
0	7864072	211.093430687112	0.052950582304021
0	7864091	211.094076728191	0.053596623383015
0	7864119	211.094983007879	0.054502903071011
0	7864384	211.114498188563	0.074018083755021
0	7878067	212.05135624885	0.010876144042015
0	7878319	212.062524733482	0.022044628674024
0	7878345	212.063078255533	0.022598150725003
0	7878368	212.063631777584	0.023151672776009
0	7878524	212.072168756592	0.031688651784009
0	7878554	212.072922300814	0.032442196006002
0	7878719	212.082505786889	0.042025682081004
0	7878910	212.0929734741	0.052493369292023
0	7878921	212.093430687112	0.052950582304021
0	7878941	212.094076728191	0.053596623383015
0	7878955	212.094983007879	0.054502903071011
0	7879253	212.114854023437	0.074373918629021
0	7893403	213.052125479319	0.010876144041987
0	7893650	213.063293963951	0.022044628673996
0	7893670	213.063847486002	0.022598150725003
0	7893692	213.064785070574	0.023535735297003
0	7893830	213.072937987061	0.031688651783981
0	7893866	213.073814131103	0.032564795826005
0	7894031	213.083685931985	0.042436596708001
0	7894214	213.093742704569	0.052493369291994
0	7894233	213.094199917581	0.052950582303993
0	7894255	213.09484595866	0.053596623382987
0	7894273	213.095752238348	0.054502903070983
0	7894570	213.115267419032	0.074018083754993
0	7909578	214.052125479669	0.010876144042015
0	7909847	214.063293964301	0.022044628673996
0	7909866	214.063847486352	0.022598150725003
0	7909889	214.064401008403	0.023151672776009
0	7910064	214.072937987411	0.031688651784009
0	7910099	214.073691531633	0.032442196006002
0	7910288	214.083275017708	0.042025682081004
0	7910487	214.093742704919	0.052493369292023
0	7910504	214.094199917931	0.052950582304021
0	7910529	214.09484595901	0.053596623383015
0	7910544	214.095752238698	0.054502903071011
0	7910838	214.115267419382	0.074018083755021
0	7926326	215.052839764983	0.010876144041987
0	7926617	215.064008249615	0.022044628673996
0	7926640	215.064561771666	0.022598150725003
0	7926671	215.065499356238	0.023535735297003
0	7926836	215.073652272725	0.031688651783981
0	7926871	215.074405816947	0.032442196006002
0	7927046	215.083989303022	0.042025682081004
0	7927246	215.094456990233	0.052493369291994
0	7927251	215.094914203245	0.052950582303993
0	7927274	215.095598385647	0.053634764706004
0	7927296	215.096466524012	0.054502903070983
0	7927649	215.115981704696	0.074018083754993
0	7943540	216.053529419555	0.010876144041987
0	7943821	216.064697904187	0.022044628673996
0	7943841	216.065251426238	0.022598150725003
0	7943861	216.065804948289	0.023151672775981
0	7944023	216.074341927297	0.031688651783981
0	7944059	216.075095471519	0.032442196006002
0	7944248	216.084678957594	0.042025682081004
0	7944475	216.095146644805	0.052493369291994
0	7944493	216.095603857817	0.052950582303993
0	7944526	216.096249898896	0.053596623382987
0	7944547	216.097156178584	0.054502903070983
0	7944938	216.116671359268	0.074018083754993
0	7960847	217.053529420055	0.010876144041987
0	7961109	217.064697904687	0.022044628673996
0	7961128	217.065251426738	0.022598150725003
0	7961144	217.065804948789	0.023151672776009
0	7961307	217.074341927797	0.031688651784009
0	7961347	217.075095472019	0.032442196006002
0	7961513	217.084678958094	0.042025682081004
0	7961715	217.095146645305	0.052493369291994
0	7961725	217.095603858317	0.052950582303993
0	7961745	217.096249899396	0.053596623382987
0	7961767	217.097160581446	0.054507305432992
0	7962088	217.116671359768	0.074018083754993
0	7976900	218.054174580845	0.010876144042015
0	7977166	218.065343065477	0.022044628674024
0	7977190	218.065896587528	0.022598150725003
0	7977212	218.0668341721	0.023535735297003
0	7977357	218.074987088587	0.031688651784009
0	7977391	218.075740632809	0.032442196006002
0	7977573	218.085324118884	0.042025682081004
0	7977773	218.095989663137	0.052691226334019
0	7977789	218.096406842713	0.053108405910024
0	7977807	218.096895060186	0.053596623383015
0	7977833	218.097801339874	0.054502903071011
0	7978170	218.117316520558	0.074018083755021
0	7995951	219.054174580845	0.010876144042015
0	7996262	219.065343065477	0.022044628674024
0	7996294	219.065896587528	0.022598150725003
0	7996321	219.0668341721	0.023535735297003
0	7996493	219.074987088587	0.031688651784009
0	7996529	219.075740632809	0.032442196006002
0	7996729	219.085324118884	0.042025682081004
0	7996961	219.095791806095	0.052493369292023
0	7996980	219.096249019107	0.052950582304021
0	7997000	219.096895060186	0.053596623383015
0	7997030	219.097801339874	0.054502903071011
0	7997437	219.117316520558	0.074018083755021
0	8015822	220.054780641351	0.010876144041987
0	8016134	220.065949125983	0.022044628673996
0	8016157	220.066502648034	0.022598150725003
0	8016180	220.067056170085	0.023151672775981
0	8016376	220.075593149093	0.031688651784009
0	8016442	220.076907365156	0.033002867846989
0	8016633	220.08593017939	0.042025682081004
0	8016867	220.096397866601	0.052493369291994
0	8016881	220.096855079613	0.052950582303993
0	8016913	220.097721817813	0.053817320503981
0	8016926	220.09840740038	0.054502903070983
0	8017326	220.117922581064	0.074018083754993
0	8036089	221.055368876445	0.010876144041987
0	8036416	221.066537361077	0.022044628673996
0	8036438	221.067090883128	0.022598150725003
0	8036458	221.067644405179	0.023151672775981
0	8036660	221.076181384187	0.031688651784009
0	8036693	221.076934928409	0.032442196006002
0	8036905	221.086518414484	0.042025682081004
0	8037134	221.096986101695	0.052493369291994
0	8037148	221.097443314707	0.052950582303993
0	8037174	221.098089355786	0.053596623382987
0	8037196	221.098995635474	0.054502903070983
0	8037589	221.118510816158	0.074018083754993
0	8056655	222.055940304266	0.010876144041987
0	8056971	222.067108788898	0.022044628673996
0	8056993	222.067662310949	0.022598150725003
0	8057014	222.068215833	0.023151672775981
0	8057199	222.076752812008	0.031688651783981
0	8057245	222.07750635623	0.032442196006002
0	8057435	222.087089842305	0.042025682081004
0	8057664	222.097557529516	0.052493369291994
0	8057682	222.098014742528	0.052950582303993
0	8057707	222.098718082078	0.053653921853993
0	8057729	222.099567063295	0.054502903070983
0	8058130	222.119125853656	0.074061693431986
0	8077946	223.055940305066	0.010876144042015
0	8078260	223.067108789698	0.022044628673996
0	8078283	223.067662311749	0.022598150725003
0	8078306	223.0682158338	0.023151672776009
0	8078489	223.076752812808	0.031688651784009
0	8078527	223.07750635703	0.032442196006002
0	8078730	223.087089843105	0.042025682081004
0	8078973	223.097557530316	0.052493369291994
0	8078989	223.098014743328	0.052950582304021
0	8079016	223.098660784407	0.053596623383015
0	8079039	223.099567064095	0.054502903071011
0	8079488	223.119082244779	0.074018083755021
0	8099533	224.055940305916	0.010876144041987
0	8099878	224.067108790548	0.022044628673996
0	8099903	224.067662312599	0.022598150725003
0	8099921	224.06821583465	0.023151672776009
0	8100136	224.076752813658	0.031688651784009
0	8100171	224.07750635788	0.032442196006002
0	8100406	224.087267678861	0.042203516987001
0	8100637	224.097557531166	0.052493369291994
0	8100657	224.098014744178	0.052950582303993
0	8100680	224.098660785257	0.053596623382987
0	8100702	224.099567064945	0.054502903071011
0	8101160	224.119082245629	0.074018083754993
0	8120397	225.056466620805	0.010876144042015
0	8120693	225.067635105437	0.022044628674024
0	8120719	225.068188627488	0.022598150725003
0	8120752	225.06912621206	0.023535735297003
0	8120950	225.077279128547	0.031688651784009
0	8120983	225.078032672769	0.032442196006002
0	8121202	225.087616158844	0.042025682081004
0	8121479	225.098083846055	0.052493369292023
0	8121498	225.098541059067	0.052950582304021
0	8121527	225.099248958498	0.053658481735027
0	8121561	225.100155238186	0.054564761423023
0	8122017	225.11967041887	0.074079942107005
0	8142184	226.056466621155	0.010876144041987
0	8142518	226.067635105787	0.022044628673996
0	8142540	226.068188627838	0.022598150725003
0	8142576	226.06912621241	0.023535735297003
0	8142774	226.077279128897	0.031688651784009
0	8142819	226.078466621155	0.032876144042007
0	8143027	226.087616159194	0.042025682081004
0	8143284	226.098083846405	0.052493369291994
0	8143297	226.098541059417	0.052950582303993
0	8143330	226.099187100496	0.053596623382987
0	8143356	226.100093380184	0.054502903071011
0	8143812	226.119608560868	0.074018083754993
0	8165882	227.056466621155	0.010876144041987
0	8166223	227.067635105787	0.022044628673996
0	8166247	227.068188627838	0.022598150725003
0	8166261	227.068742149889	0.023151672776009
0	8166486	227.077279128897	0.031688651784009
0	8166528	227.078155272939	0.032564795826005
0	8166762	227.087616159194	0.042025682081004
0	8167034	227.098083846405	0.052493369291994
0	8167050	227.098541059417	0.052950582303993
0	8167079	227.099363448778	0.053772971665012
0	8167112	227.100269728466	0.054679251353008
0	8167570	227.11978490915	0.07419443203699
0	8189552	228.056954425933	0.010876144041987
0	8189883	228.068122910565	0.022044628673996
0	8189911	228.068676432616	0.022598150725003
0	8189935	228.069229954667	0.023151672776009
0	8190154	228.077766933675	0.031688651784009
0	8190200	228.078643077717	0.032564795826005
0	8190434	228.088103963972	0.042025682081004
0	8190703	228.098571651183	0.052493369291994
0	8190721	228.099028864195	0.052950582303993
0	8190745	228.099775274537	0.053696992645996
0	8190774	228.100681554225	0.054603272333992
0	8191219	228.120196734909	0.074118453018002
0	8213959	229.057430616009	0.010876144041987
0	8214331	229.068599100641	0.022044628673996
0	8214356	229.069152622692	0.022598150725003
0	8214376	229.069706144743	0.023151672776009
0	8214640	229.078243123751	0.031688651784009
0	8214674	229.078996667973	0.032442196006002
0	8214946	229.088580154048	0.042025682081004
0	8215244	229.099047841259	0.052493369291994
0	8215258	229.099505054271	0.052950582303993
0	8215294	229.10037506268	0.053820590713002
0	8215320	229.101281342368	0.054726870400998
0	8215816	229.121151828649	0.074597356682006
0	8239377	230.057895732138	0.010876144042015
0	8239754	230.069096136032	0.022076547935995
0	8239779	230.069649658083	0.022630069987002
0	8239818	230.070587242655	0.023567654559002
0	8240053	230.078996667823	0.031977079727
0	8240096	230.079750212045	0.032730623948993
0	8240346	230.089045270177	0.042025682081004
0	8240638	230.099512957388	0.052493369291994
0	8240661	230.0999701704	0.052950582303993
0	8240685	230.100616211479	0.053596623383015
0	8240721	230.101714574342	0.054694986246005
0	8241228	230.121037671851	0.074018083754993
0	8263002	231.057895733138	0.010876144042015
0	8263327	231.069106707856	0.022087118760027
0	8263354	231.069660229907	0.022640640811005
0	8263375	231.070213751958	0.023194162862012
0	8263589	231.078750730966	0.031731141870011
0	8263628	231.079504275188	0.032484686092005
0	8263864	231.089045271177	0.042025682081004
0	8264144	231.099512958388	0.052493369292023
0	8264158	231.0999701714	0.052950582304021
0	8264180	231.100616212479	0.053596623383015
0	8264208	231.101522492167	0.054502903071011
0	8264674	231.121037672851	0.074018083755021
0	8287596	232.058695495054	0.01123146251399
0	8287983	232.069508661214	0.022044628673996
0	8288010	232.070062183265	0.022598150725003
0	8288046	232.070999767837	0.023535735297003
0	8288303	232.079152684324	0.031688651783981
0	8288342	232.079906228546	0.032442196006002
0	8288642	232.089845033093	0.042381000552979
0	8288946	232.099957401832	0.052493369291994
0	8288958	232.100414614844	0.052950582303993
0	8288987	232.10120438562	0.053740353080002
0	8289009	232.102110665308	0.054646632767998
0	8289562	232.121625845992	0.07416181345198
0	8315060	233.058340177282	0.010876144041987
0	8315460	233.069508661914	0.022044628673996
0	8315491	233.070062183965	0.022598150725003
0	8315516	233.070615706016	0.023151672775981
0	8315798	233.079152685024	0.031688651783981
0	8315853	233.080028829066	0.032564795826005
0	8316146	233.089489715321	0.042025682081004
0	8316462	233.100022348047	0.052558314806987
0	8316479	233.100479561059	0.053015527818985
0	8316503	233.101060656623	0.053596623382987
0	8316529	233.101966936311	0.054502903070983
0	8317038	233.121482116995	0.074018083754993
0	8342555	234.058340177532	0.010876144041987
0	8342952	234.069508662164	0.022044628673996
0	8342979	234.070062184215	0.022598150725003
0	8343004	234.070615706266	0.023151672775981
0	8343267	234.079152685274	0.031688651783981
0	8343311	234.080028829316	0.032564795826005
0	8343572	234.089489715571	0.042025682081004
0	8343902	234.099957402782	0.052493369291994
0	8343919	234.100414615794	0.052950582303993
0	8343947	234.101060656873	0.053596623382987
0	8343970	234.101966936561	0.054502903070983
0	8344539	234.121482117245	0.074018083754993
0	8370603	235.058340178332	0.010876144042015
0	8370989	235.069508662964	0.022044628673996
0	8371014	235.070062185015	0.022598150725003
0	8371037	235.070615707066	0.023151672776009
0	8371332	235.079564668112	0.032100633822012
0	8371357	235.080002740133	0.032538705842995
0	8371650	235.089489716371	0.042025682081004
0	8371973	235.099957403582	0.052493369291994
0	8371988	235.100414616594	0.052950582304021
0	8372022	235.101060657673	0.053596623383015
0	8372048	235.101966937361	0.054502903071011
0	8372583	235.121482118045	0.074018083755021
0	8398606	236.058748340847	0.010876144041987
0	8398969	236.070005697755	0.022133500949991
0	8398992	236.070559219806	0.022687023000998
0	8399017	236.071112741857	0.023240545052005
0	8399263	236.079649720865	0.031777524060004
0	8399299	236.080403265087	0.032531068281997
0	8399552	236.089897878886	0.042025682081004
0	8399829	236.100365566097	0.052493369291994
0	8399842	236.100822779109	0.052950582303993
0	8399866	236.101468820188	0.053596623382987
0	8399893	236.102375099876	0.054502903070983
0	8400348	236.12189028056	0.074018083754993
0	8424756	237.058748340847	0.010876144041987
0	8425143	237.07001386102	0.022141664214985
0	8425163	237.070567383071	0.022695186265992
0	8425203	237.071504967643	0.023632770837992
0	8425456	237.07965788413	0.031785687324998
0	8425491	237.080411428352	0.032539231546991
0	8425784	237.089897878886	0.042025682081004
0	8426112	237.100365566097	0.052493369291994
0	8426131	237.100822779109	0.052950582303993
0	8426159	237.101468820188	0.053596623382987
0	8426185	237.102375099876	0.054502903070983
0	8426757	237.12189028056	0.074018083754993
0	8454420	238.058794256655	0.010922059199999
0	8454821	238.069916826129	0.022044628673996
0	8454847	238.07047034818	0.022598150724974
0	8454881	238.071023870231	0.023151672775981
0	8455140	238.079560849239	0.031688651783981
0	8455201	238.080314393461	0.032442196006002
0	8455516	238.09022409812	0.042351900664983
0	8455867	238.100365566747	0.052493369291994
0	8455880	238.100822779759	0.052950582303993
0	8455911	238.101468820838	0.053596623382987
0	8455952	238.102375100526	0.054502903070983
0	8456563	238.12189028121	0.074018083754993
0	8484758	239.058748342497	0.010876144041987
0	8485205	239.070254087597	0.022381889141997
0	8485222	239.070807609648	0.022935411193004
0	8485255	239.071361131699	0.02348893324401
0	8485551	239.079898110707	0.03202591225201
0	8485598	239.080651654929	0.032779456474003
0	8485913	239.089897880536	0.042025682081004
0	8486293	239.10053861483	0.05266641637499
0	8486314	239.100990669867	0.053118471412006
0	8486340	239.101468821838	0.053596623382987
0	8486370	239.102375101526	0.054502903071011
0	8486990	239.12189028221	0.074018083754993
0	8515791	240.058748343647	0.010876144041987
0	8516223	240.070036505329	0.022164305724004
0	8516250	240.07059002738	0.022717827775011
0	8516293	240.071527611952	0.023655412347011
0	8516576	240.079859454737	0.031987255132009
0	8516613	240.080434072661	0.032561873056011
0	8516928	240.089897881686	0.042025682081004
0	8517282	240.100365568897	0.052493369291994
0	8517325	240.101269678971	0.053397479365998
0	8517347	240.10185077524	0.053978575635
0	8517373	240.102375102676	0.054502903071011
0	8517993	240.12189028336	0.074018083754993
0	8544740	241.059118713017	0.010876144042015
0	8545117	241.07041386282	0.02217129384502
0	8545146	241.070967384871	0.022724815895998
0	8545172	241.071520906922	0.023278337947005
0	8545397	241.08005788593	0.031815316955004
0	8545437	241.080811430152	0.032568861176998
0	8545683	241.090268251056	0.042025682081004
0	8545988	241.100735938267	0.052493369292023
0	8546002	241.101193151279	0.052950582304021
0	8546035	241.101839192358	0.053596623383015
0	8546066	241.102745472046	0.054502903071011
0	8546612	241.122535485935	0.074292916960019

