version 2
run Net10-0-20190228-14:21:16-5464
attr configname Net10
attr datetime 20190228-14:21:16
attr experiment Net10
attr inifile omnetpp.ini
attr iterationvars ""
attr iterationvarsf ""
attr measurement ""
attr network mogp.networks.Net10
attr processid 5464
attr repetition 0
attr replication #0
attr resultdir results
attr runnumber 0
attr seedset 0
param **.eventStorage.packetLength "1024 byte"
param **.node[*].operator[*].packetLength "1024 byte"

vector 0 Net10.eventStorage "End-to-End Delay" ETV
0	98	5	0
0	105	5.000833333333	0
0	112	5.001666666666	0
0	119	5.002499999999	0
0	126	5.003333333332	0
0	133	5.004166666665	0
0	140	5.004999999998	0
0	147	5.005833333331	0
0	154	5.006666666664	0
0	161	5.007499999997	0
0	168	5.00833333333	0
0	175	5.009166666663	0
0	45671	7.658349429759	0.021156447468001
0	45696	7.659067805206	0.02161166502
0	47166	7.701841384338	0.064122086257
0	47533	7.712367700138	0.074385244161999
0	49759	7.779822094012	0.141576480141
0	49808	7.780998442294	0.142226512633
0	49834	7.781586616435	0.142551528879
0	50518	7.80128186296	0.162773091194
0	50956	7.813771475032	0.174473229581
0	50983	7.814415168073	0.174853764727
0	51008	7.815058861114	0.175234299873
0	51037	7.815702554155	0.175614835019
0	88233	8.925717852079	0.021156447468
0	88261	8.926436227526	0.02161166502
0	89709	8.969209806658	0.064122086257001
0	90039	8.97903021666	0.073679338364
0	100407	9.31966199515	0.414047958959
0	100449	9.320838343432	0.414697991451
0	100474	9.321426517573	0.415023007697
0	101112	9.341121764098	0.435244570012
0	101492	9.35361137617	0.446944708399
0	101510	9.354255069211	0.447325243545
0	101536	9.354898762252	0.447705778691
0	101571	9.355542455293	0.448086313837
0	220050	13.714113437069	0.021156447468
0	220071	13.714831812516	0.021552242269999
0	221380	13.75774219105	0.064140040159
0	221674	13.7676040699	0.073679338364
0	258916	14.989072540249	1.294825228068
0	258947	14.990248888531	1.29535641506
0	258973	14.990837062672	1.295622008556
0	259632	15.010532309197	1.315962416371
0	260073	15.023021921269	1.327484286508
0	260097	15.02366561431	1.327805398904
0	260118	15.024309307351	1.3281265113
0	260146	15.024953000392	1.328447623696
0	346668	17.743790855497	0.021156447468002
0	346690	17.744509230944	0.021630920475999
0	347936	17.787282810076	0.064160597169
0	348258	17.79704545371	0.073679338363998
0	429581	20.489677106881	2.766067089096
0	429638	20.490853455163	2.7667556325
0	429662	20.491441629304	2.767099904202
0	430336	20.511136875829	2.787282955605
0	431480	20.546645928637	2.822060301096
0	431502	20.547289621678	2.822460091698
0	431536	20.547933314719	2.8228598823
0	431566	20.54857700776	2.823259672902
0	459069	21.425104774735	0.021156447468002
0	459094	21.425823150182	0.021580705268001
0	460449	21.468596729314	0.064060166753002
0	460764	21.478510018572	0.073679338363998
0	560219	24.892160552266	3.487035754411
0	560270	24.893336900548	3.487623867399
0	560291	24.893925074689	3.487917923893
0	560917	24.913620321214	3.508201405712
0	561333	24.926109933286	3.519808664843
0	561348	24.926753626327	3.520158240237
0	561376	24.927397319368	3.520507815631
0	561410	24.928041012409	3.520857391025
0	569905	25.193470208252	0.021286587620999
0	569930	25.194188583699	0.021710845420998
0	571293	25.236962162831	0.064190306905999
0	571614	25.246745311936	0.073679338363998
0	676765	28.444202812413	0.021156447468002
0	676791	28.44492118786	0.021652600693002
0	678016	28.487694766992	0.064203957603002
0	678286	28.497392369975	0.073679338363998
0	711316	29.44698110017	4.273621008951
0	711376	29.448157448452	4.274209121939
0	711412	29.448745622593	4.274503178433
0	712164	29.468440869118	4.294786660252
0	712610	29.48093048119	4.306393919383
0	712637	29.481574174231	4.306743494777
0	712660	29.482217867272	4.307093070171
0	712690	29.482861560313	4.307442645565
0	782437	31.752103279653	0.021156447468002
0	782465	31.7528216551	0.021571792612001
0	783830	31.795595234232	0.064042341440999
0	784150	31.805548927822	0.073693004728
0	841036	33.771237384802	5.347302130969
0	841085	33.772413733084	5.348034034807
0	841113	33.773001907225	5.348399986726
0	841733	33.79269715375	5.368539677695
0	842175	33.805186765822	5.380362623101
0	842200	33.805830458863	5.38078409392
0	842225	33.806474151904	5.381205564739
0	842248	33.807117844945	5.381627035558
0	862400	34.31659538262	0.010497035541
0	862425	34.317201443226	0.010497035541
0	862447	34.317698478767	0.010691040779001
0	862452	34.317748540312	0.010438072020996
0	863323	34.337391012038	0.031898725565
0	864305	34.359071442749	0.053276125972999
0	864369	34.360241816018	0.052628317423995
0	864394	34.360764166596	0.052544607396001
0	864713	34.368239089533	0.063049833363003
0	1007045	37.99903311031	6.266874156913
0	1007097	38.000209458592	6.267444444589
0	1007126	38.000797632733	6.267729588427
0	1007956	38.020492879258	6.288030895558
0	1008508	38.03298249133	6.299611416721
0	1008537	38.033626184371	6.299952079459
0	1008575	38.034269877412	6.300292742197
0	1008620	38.034913570453	6.300633404935
0	1019179	38.275220090465	0.010497035541
0	1019212	38.275732910977	0.010497035541
0	1019238	38.276186767969	0.010438072021003
0	1019243	38.276229946518	0.010737660826003
0	1020196	38.296108959977	0.031898725565
0	1021242	38.318450386808	0.053983742139998
0	1021256	38.318680043675	0.052674937471004
0	1021278	38.319118115696	0.052600188980001
0	1021590	38.327003657519	0.063049833363003
0	1123257	40.693308732437	6.38842250657
0	1124314	40.714763819776	6.408362442394
0	1124353	40.715482308207	6.40756577931
0	1173852	41.733526434768	0.010497035541
0	1173884	41.734052750558	0.010497035541
0	1173905	41.734520102828	0.010438072021003
0	1173915	41.734549786099	0.010730913187004
0	1174843	41.754401809002	0.031898725565
0	1175847	41.776042367305	0.053276125972999
0	1175907	41.777013378534	0.052668189832005
0	1175924	41.777451450555	0.052579946062998
0	1176292	41.785289758905	0.063049833363003
0	1217799	42.636636094301	4.372938680401
0	1218857	42.65809118164	4.39311171646
0	1218885	42.658809670071	4.392548153611
0	1312296	44.579963456165	2.857986688518
0	1313423	44.601453505142	2.87816094802
0	1313461	44.602137031935	2.877528685338
0	1343837	45.211421175088	0.010497035541
0	1343865	45.211947490878	0.010497035541
0	1343902	45.212414843148	0.010438072020996
0	1343907	45.212444526419	0.010730913186997
0	1344908	45.232296549322	0.031898725565
0	1346092	45.254446998892	0.05378601724
0	1346151	45.255221336264	0.052981407242001
0	1346177	45.255659408285	0.052893163473001
0	1346526	45.263259060451	0.063124394588996
0	1407579	46.523290818029	1.323419310062
0	1408671	46.544745905368	1.343558607926
0	1408730	46.545747653344	1.343244566427
0	1508752	48.689315915408	0.010497035541
0	1508779	48.689842231198	0.010497035541
0	1508796	48.690309583468	0.010438072021003
0	1508801	48.690339266739	0.010730913187004
0	1509596	48.70937857371	0.031612325422998
0	1509640	48.710191289642	0.031898725565
0	1510549	48.731561276383	0.052479238620997
0	1510583	48.732046886569	0.053491164597006
0	1510624	48.732802859174	0.052668189832005
0	1510644	48.733240931195	0.052843103957997
0	1510681	48.734117075237	0.053456090105001
0	1510995	48.741079239545	0.063049833363003
0	1673335	52.862924433015	0.010612533535998
0	1674316	52.885098828075	0.031811318840006
0	1674323	52.885144800316	0.032345095959002
0	1674352	52.885817203522	0.032285791848004
0	1674385	52.886535578969	0.032760264855995
0	1675269	52.905909667188	0.052866060391999
0	1694004	53.327052280043	0.472789161052
0	1694032	53.327640454184	0.473133432754
0	1694064	53.328228628325	0.473477704456
0	1694096	53.328816802466	0.473821976158
0	1694483	53.337209637838	0.483190421286
0	1694939	53.347200177239	0.49464437532099
0	1830814	56.573412237522	0.010612533535998
0	1831843	56.595790539411	0.032015225668999
0	1831868	56.596245138359	0.032957629495002
0	1831890	56.596508914858	0.032489698676997
0	1831917	56.597227290305	0.032964171685002
0	1832810	56.616588524102	0.053057112799003
0	1881762	57.732476596133	1.167725672635
0	1881793	57.733064770274	1.168069944337
0	1881819	57.733652944415	1.168414216039
0	1881850	57.734241118556	1.168758487741
0	1882230	57.742744991728	1.178237970669
0	1882701	57.752735531129	1.189691924704
0	2037111	61.327318026489	0.010460057120994
0	2037132	61.32775609851	0.010620351364004
0	2037640	61.339691557703	0.021166921667003
0	2037649	61.33995631804	0.020876126448002
0	2038022	61.349102176708	0.031688651784002
0	2038912	61.371067446778	0.053376144075997
0	2039434	61.383054684338	0.063141159411998
0	2097383	62.84118376239	1.52321468191
0	2097413	62.841827455431	1.523580597173
0	2098303	62.863617683063	1.544815269249
0	2098356	62.864883443087	1.545247695939
0	2099152	62.884838835741	1.565480866371
0	2219206	65.88745633928	0.010598366263991
0	2219222	65.887894411301	0.010758660507008
0	2219760	65.899691561351	0.021166921667003
0	2219778	65.900084753812	0.021004558572002
0	2220164	65.909102180356	0.031688651784009
0	2221030	65.930897261554	0.053205955203993
0	2221535	65.942896190397	0.062982661823
0	2275706	67.32301519791	1.445046113782
0	2275731	67.323658890951	1.445412029045
0	2276588	67.345449118583	1.466646701121
0	2276622	67.346122762013	1.466487011217
0	2277465	67.366406182679	1.487048209661
0	2378583	69.890651366673	0.010460057120994
0	2378607	69.891089438694	0.010620351363997
0	2379140	69.903024897887	0.021166921666989
0	2379154	69.903289658224	0.020876126448002
0	2379569	69.913054708764	0.032307843656
0	2380429	69.934400786962	0.053376144075997
0	2380925	69.946229526933	0.062982661823
0	2439663	71.366767936185	1.485465515521
0	2439696	71.367411629226	1.485831430784
0	2440581	71.38941262054	1.507276866542
0	2440620	71.390159431031	1.507190343699
0	2441373	71.410116620339	1.527425310785
0	2542521	74.034598917622	0.010438072020989
0	2542545	74.035036989643	0.010553563397011
0	2542974	74.047263251138	0.021166921667003
0	2542993	74.047617617209	0.020876126448002
0	2543289	74.056494658675	0.031688651783995
0	2543977	74.077693365768	0.052564778231996
0	2544415	74.090691894519	0.062982661823
0	2585521	75.221661256299	1.196210088118
0	2585548	75.22230494934	1.196531200514
0	2586411	75.244095176972	1.217676266856
0	2586449	75.244713301502	1.217326649451
0	2587229	75.264996722168	1.237932650762
0	2713498	78.683631173362	0.010438072021003
0	2713510	78.684069245383	0.010553563396996
0	2714028	78.696295506878	0.021166921667003
0	2714051	78.696649872949	0.020876126448002
0	2714428	78.705526914415	0.031688651784009
0	2715291	78.726725621508	0.052564778231996
0	2715767	78.739724150259	0.062982661823
0	2727365	79.056501136719	0.38201771279799
0	2727394	79.05714482976	0.382338825194
0	2728140	79.078935057392	0.403483891536
0	2728171	79.079828460685	0.40340955289399
0	2728847	79.099892121488	0.423795794342
0	2878963	83.139496188727	0.010553563396996
0	2878983	83.139934260748	0.01066905477299
0	2879382	83.151464815092	0.021231867181996
0	2879409	83.152045030867	0.021166921667003
0	2879416	83.152108508133	0.021552979578004
0	2879434	83.152399396938	0.020876126448002
0	2879755	83.161276438404	0.031688651784009
0	2880209	83.173898735765	0.042698045919991
0	2880255	83.175086782623	0.042918350842996
0	2880501	83.18249903898	0.052588671715
0	2880919	83.194855799861	0.063009948726005
0	2880949	83.195731943903	0.063240931478006
0	3036498	87.506099517729	0.010553698167001
0	3036528	87.50653758975	0.010759212048001
0	3037068	87.518108090069	0.021166921666989
0	3037094	87.518602298819	0.021196014137004
0	3037539	87.527817312484	0.03180637664201
0	3038507	87.549158572846	0.052915078864004
0	3039068	87.561511180911	0.063407221809001
0	3040055	87.583585458114	0.08710940599201
0	3040084	87.584229151155	0.087520540892996
0	3041085	87.606019378787	0.10884565224499
0	3041131	87.607038487833	0.109167086871
0	3042027	87.626976442883	0.12933760006099

