version 2
run Net10-0-20190304-21:20:29-6972
attr configname Net10
attr datetime 20190304-21:20:29
attr experiment Net10
attr inifile omnetpp.ini
attr iterationvars ""
attr iterationvarsf ""
attr measurement ""
attr network mogp.networks.Net10
attr processid 6972
attr repetition 0
attr replication #0
attr resultdir results
attr runnumber 0
attr seedset 0
param **.eventStorage.packetLength "1024 byte"
param **.node[*].operator[*].packetLength "1024 byte"

vector 0 Net10.eventStorage "End-to-End Delay" ETV
0	173	5	0
0	174	5	0
0	175	5	0
0	176	5	0
0	177	5	0
0	178	5	0
0	179	5	0
0	180	5	0
0	181	5	0
0	182	5	0
0	183	5	0
0	184	5	0
0	11745	6.011445866469	0.010612533536
0	11769	6.012058400005	0.011225067072
0	11793	6.012670933541	0.011837600608001
0	11843	6.014362377779	0.013529044846001
0	12077	6.032293101881	0.031459768948
0	12082	6.032321992917	0.031488659984
0	12107	6.033120289488	0.032286956555001
0	12125	6.033708463629	0.032875130696
0	12134	6.03429663777	0.033463304837
0	12524	6.064168681842	0.063335348909001
0	12536	6.064887057289	0.064053724356
0	12550	6.065605432736	0.064772099803
0	23361	7.012279199402	0.010612533536
0	23389	7.012891732938	0.011225067072
0	23413	7.013504266474	0.011837600608
0	23445	7.014607536571	0.012940870705
0	23723	7.033126434814	0.031459768948
0	23728	7.03315532585	0.031488659984
0	23759	7.033953622421	0.032286956555
0	23778	7.034541796562	0.032875130696
0	23789	7.035129970703	0.033463304837
0	24220	7.065002014775	0.063335348909
0	24229	7.065720390222	0.064053724356
0	24246	7.067157141116	0.06549047525
0	35082	8.013112532335	0.010612533536001
0	35111	8.013725065871	0.011225067072001
0	35133	8.014337599407	0.011837600608001
0	35160	8.015440869504	0.012940870705
0	35447	8.033959767747	0.031459768948
0	35452	8.033988658783	0.031488659984001
0	35468	8.034786955354	0.032286956555
0	35482	8.035375129495	0.032875130696
0	35497	8.036551477777	0.034051478978
0	35847	8.065835347708	0.063335348909
0	35856	8.066553723155	0.064053724356
0	35872	8.067990474049	0.06549047525
0	46677	9.013945865268	0.010612533535999
0	46700	9.014558398804	0.011225067072001
0	46723	9.01517093234	0.011837600608001
0	46744	9.016274202437	0.012940870705
0	47014	9.03479310068	0.031459768948
0	47019	9.034821991716	0.031488659983999
0	47049	9.036176346672	0.032843014940001
0	47060	9.036764520813	0.033431189081
0	47080	9.037940869095	0.034607537363
0	47461	9.066668680641	0.063335348909
0	47470	9.067387056088	0.064053724356
0	47478	9.068105431535	0.064772099803001
0	58284	10.014779198201	0.010612533535999
0	58309	10.015391731737	0.011225067071999
0	58339	10.016004265273	0.011837600608001
0	58386	10.01710753537	0.012940870705
0	58980	10.035655324649	0.031488659983999
0	58986	10.035822701484	0.031656036818999
0	59049	10.037376504107	0.033209839442
0	59074	10.037964678248	0.033798013583
0	59110	10.03914102653	0.034974361865
0	59957	10.067502013574	0.063335348909
0	59984	10.068220389021	0.064053724356
0	60020	10.069194717374	0.065028052709
0	90130	11.014779199201	0.010612533535999
0	90162	11.015391732737	0.011225067071999
0	90201	11.016004266273	0.011837600607999
0	90270	11.017762692787	0.013596027122
0	90940	11.035655325649	0.031488659983999
0	90945	11.035693416889	0.031526751224
0	90987	11.036520604496	0.032353938830999
0	91052	11.038285126919	0.034118461254
0	91097	11.039461475201	0.035294809536
0	92098	11.067502014574	0.063335348909
0	92121	11.068220390021	0.064053724356
0	92156	11.068938765468	0.064772099802999
0	122327	12.014779200201	0.010612533535999
0	122376	12.016004267273	0.011837600607999
0	122412	12.016616800809	0.012450134144
0	122483	12.018014916935	0.01384825027
0	123116	12.035655326649	0.031488659983999
0	123144	12.036533815178	0.032367148513
0	123191	12.037361002785	0.033194336119999
0	123253	12.039125525208	0.034958858543
0	123314	12.040890047631	0.036723380966
0	124224	12.067502015574	0.063335348909
0	124257	12.068352868744	0.064186202079
0	124286	12.068938766468	0.064772099802999
0	160176	13.014839289735	0.010672622069999
0	160209	13.015451823271	0.011285155606
0	160252	13.016064356807	0.011897689142
0	160314	13.017695712511	0.013529044845999
0	160969	13.035626436613	0.031459768948
0	160974	13.035655327649	0.031488659983999
0	161031	13.037330175019	0.033163507353999
0	161053	13.03791834916	0.033751681495
0	161096	13.039094697442	0.034928029776999
0	162072	13.067502016574	0.063335348909
0	162096	13.068220392021	0.064053724355999
0	162136	13.069112728465	0.064946060799999
0	193729	14.015049470471	0.010612533536001
0	193771	14.015662004007	0.011225067072001
0	193803	14.016274537543	0.011837600608001
0	193873	14.017965981781	0.013529044846001
0	194640	14.035896705883	0.031459768948
0	194645	14.035925596919	0.031488659984001
0	194848	14.040316599139	0.035879662204001
0	194906	14.041492947421	0.037056010486001
0	194955	14.042669295703	0.038232358768001
0	196006	14.067772285844	0.063335348909
0	196062	14.068671710223	0.064234773288002
0	196088	14.069209036738	0.064772099803001
0	233999	15.015262234328	0.010612533536001
0	234031	15.015874767864	0.011225067072001
0	234060	15.0164873014	0.011837600608001
0	234908	15.03616344099	0.031513740198001
0	236233	15.068132664746	0.063482963954
0	236272	15.068851040193	0.064201339401
0	236309	15.06956941564	0.064919714848001
0	251058	15.432524790886	0.427875090094
0	251799	15.450525489622	0.44587578883
0	269495	15.878360789764	0.873711088972
0	269544	15.879537138046	0.874887437254
0	269622	15.881301660469	0.876651959677
0	275469	16.015474998185	0.010612533535998
0	275500	16.016087531721	0.011225067071997
0	275534	16.016700065257	0.011837600607997
0	276400	16.036351124633	0.031488659983999
0	277778	16.068197813558	0.063335348909
0	277815	16.068916189005	0.064053724355997
0	277856	16.069634564452	0.064772099802997
0	294705	16.482415632571	0.477553167922
0	295162	16.500346356673	0.495483892024
0	316213	17.015687762042	0.010612533535998
0	316243	17.016300295578	0.011225067071997
0	316276	17.016912829114	0.011837600607997
0	317098	17.036576428597	0.031501200090997
0	318462	17.068423117522	0.063347889015997
0	318499	17.069141492969	0.064066264462998
0	318526	17.069859868416	0.064784639909998
0	328748	17.318799261073	1.313936796424
0	328844	17.321151957637	1.316289492988
0	328917	17.32291648006	1.318054015411
0	351809	17.874035650177	0.868960421671
0	352617	17.89283879166	0.887763563154
0	358026	18.015900525899	0.010612533536001
0	358066	18.016513059435	0.011225067072001
0	358096	18.017125592971	0.011837600608001
0	358932	18.036776652347	0.031488659984003
0	360408	18.069180635145	0.063892642782001
0	360439	18.069899010592	0.064611018229002
0	360472	18.070617386039	0.065329393676002
0	390350	18.853933769083	1.848858540577
0	390374	18.854521943224	1.849446714718
0	390428	18.855698291506	1.850623063
0	397064	19.016113289756	0.010612533536001
0	397098	19.016725823292	0.011225067072001
0	397129	19.017338356828	0.011837600608001
0	397978	19.037364121121	0.031863364901
0	398154	19.040973145921	1.035685153558
0	398909	19.058903870023	1.05361587766
0	399320	19.068836105129	0.063335348909
0	399355	19.069554480576	0.064053724356
0	399395	19.070504605287	0.065003849067001
0	435740	20.016326053613	0.010612533536001
0	435763	20.016938587149	0.011225067072001
0	435791	20.017551120685	0.011837600608001
0	436350	20.037202180061	0.031488659983999
0	437594	20.069048868986	0.063335348909
0	437646	20.06994120543	0.064227685353
0	437669	20.07048561988	0.064772099803001
0	448604	20.32848634057	1.32298558435
0	449374	20.347005238813	1.341504482593
0	450509	20.376128445991	2.370840453628
0	450561	20.377304794273	2.37201680191
0	450582	20.377892968414	2.372604976051
0	477206	21.01653881747	0.010612533536001
0	477235	21.017151351006	0.011225067072001
0	477267	21.017763884542	0.011837600608001
0	478096	21.037414943918	0.031488659983999
0	479424	21.069261632843	0.063335348909
0	479456	21.06998000829	0.064053724356
0	479487	21.070698383737	0.064772099803001
0	505481	21.738927930688	1.733214410611
0	506138	21.75685865479	1.751145134713
0	516844	22.016751581327	0.010612533536001
0	516872	22.017364114863	0.011225067072001
0	516909	22.017976648399	0.011837600608001
0	517760	22.037627707775	0.031488659983999
0	519132	22.0694743967	0.063335348909
0	519170	22.070192772147	0.064053724356
0	519199	22.070911147594	0.064772099803001
0	520475	22.100655027403	3.095154271183
0	520492	22.101243201544	3.095742445324
0	520549	22.102419549826	3.096918793606
0	548814	22.779407986117	1.773481702183
0	549587	22.797338710219	1.791412426285
0	558812	23.016964345184	0.010612533536001
0	558844	23.01757687872	0.011225067072001
0	558877	23.018189412256	0.011837600608001
0	559736	23.037840471632	0.031488659983999
0	561186	23.069687160557	0.063335348909
0	561219	23.070405536004	0.064053724356
0	561291	23.07185328651	0.065501474862
0	590523	23.854002141724	3.848288621647
0	590579	23.855178490006	3.849464969929
0	590625	23.856354838288	3.850641318211
0	597564	24.017177109041	0.010612533536001
0	597601	24.017789642577	0.011225067072001
0	597634	24.018402176113	0.011837600608001
0	598539	24.038402176071	0.031837600566
0	599958	24.070125230478	0.063560654972999
0	599988	24.070843605925	0.06427903042
0	600019	24.071561981372	0.064997405867
0	601957	24.117504156892	2.111365109101
0	602721	24.135434880994	2.129295833203
0	633203	24.908010202396	3.902083918462
0	633218	24.908598376537	3.902672092603
0	633277	24.910951073101	3.905024789167
0	636209	25.017389872898	0.010612533536001
0	636243	25.018002406434	0.011225067072001
0	636269	25.01861493997	0.011837600608001
0	637063	25.038640704263	0.031863364901
0	638358	25.070112688271	0.063335348909
0	638406	25.071057191769	0.064279852407001
0	638428	25.071549439165	0.064772099803001
0	641919	25.158572386462	2.152220574814
0	642724	25.177091284705	2.170739473057
0	676473	26.017602636755	0.010612533536001
0	676507	26.018215170291	0.011225067072001
0	676535	26.018827703827	0.011837600608001
0	677361	26.038716609374	0.031726506155
0	678731	26.07068583313	0.063695729911
0	678766	26.071404208577	0.064414105358001
0	678814	26.072255061747	0.065264958528001
0	697457	26.512549259044	2.505984683539
0	697970	26.531068157287	2.524503581782
0	700578	26.631360435526	4.625221387735
0	700629	26.633124957949	4.626985910158
0	700644	26.63371313209	4.627574084299
0	715657	27.017815400612	0.010612533536001
0	715693	27.018427934148	0.011225067072001
0	715727	27.019040467684	0.011837600608001
0	716590	27.038716607274	0.031513740198001
0	717990	27.070849271169	0.063646404092999
0	718022	27.071404206477	0.064201339400999
0	718061	27.072122581924	0.064919714847999
0	750459	27.882406833433	2.875629494071
0	751202	27.900337557535	2.893560218173
0	756058	28.018028164469	0.010612533535998
0	756110	28.018640698005	0.011225067072001
0	756145	28.019253231541	0.011837600608001
0	757074	28.039129596981	0.031713966047999
0	757258	28.042978373926	5.036626562278
0	757339	28.044742896349	5.038391084701
0	757375	28.04533107049	5.038979258842
0	758495	28.071271515996	0.063855885062999
0	758531	28.072122369166	0.064706738232999
0	758589	28.073426642337	0.066011011404001
0	790897	28.89818357494	2.891193471721
0	791671	28.91694992334	2.909959820121
0	795996	29.018240928326	0.010612533535998
0	796028	29.018853461862	0.011225067072001
0	796054	29.019465995398	0.011837600608001
0	796919	29.039154675095	0.031526280304998
0	798232	29.071404202277	0.063775807486998
0	798293	29.072426614629	0.064798219838998
0	798312	29.072872782851	0.065244388061
0	818654	29.576348359513	5.569783784008
0	818744	29.578112881936	5.571548306431
0	818807	29.579877404359	5.573312828854
0	834597	30.018453692183	0.010612533535998
0	834621	30.019066225719	0.011225067071997
0	834653	30.019678759255	0.011837600608001
0	835411	30.039329818631	0.031488659983999
0	836791	30.071176507556	0.063335348909
0	836831	30.071894883003	0.064053724356
0	836859	30.07261325845	0.064772099802997
0	846005	30.288627244264	3.281424377188
0	846819	30.306855931671	3.299653064595
0	876630	31.01866645604	0.010612533535998
0	876667	31.019278989576	0.011225067071997
0	876701	31.019891523112	0.011837600607997
0	877511	31.039542582488	0.031488659983999
0	878765	31.071389271413	0.063335348909
0	878807	31.07210764686	0.064053724356
0	878837	31.07295850003	0.064904577525997
0	882756	31.182063764443	6.175286425081
0	882836	31.184416461007	6.177639121645
0	882860	31.185004635148	6.178227295786
0	887692	31.319696513437	3.312280882504
0	888349	31.33821541168	3.330799780747
0	911929	32.01866645704	0.010612533535998
0	911962	32.019278990576	0.011225067071997
0	912000	32.019891524112	0.011837600607997
0	912871	32.03989241174	0.031838488235998
0	914131	32.072114733729	0.064060810225001
0	914148	32.072580010943	0.064526087438999
0	914178	32.07329838639	0.065244462886
0	931888	32.537805159448	6.530815056229
0	931945	32.53898150773	6.531991404511
0	932028	32.541334204294	6.534344101075
0	935905	32.646029201392	3.638400806602
0	936644	32.663959925494	3.656331530704
0	950241	33.018910359379	0.010612533535998
0	950277	33.019522892915	0.011225067071997
0	950312	33.020135426451	0.011837600607997
0	951095	33.039786485827	0.031488659983999
0	952411	33.072010773429	0.063712947585998
0	952443	33.072456941651	0.064159115807996
0	952460	33.073069925646	0.064772099803001
0	980987	33.968832844501	3.960991685854
0	981670	33.987351742744	3.979510584097
0	982969	34.019154261718	0.010612533535998
0	982996	34.019766795254	0.011225067071997
0	983033	34.02037932879	0.011837600607997
0	983747	34.040030388166	0.031488659983999
0	984774	34.071900146208	0.063358418025999
0	984793	34.072618521655	0.064076793472999
0	984830	34.073650593915	0.065108865732995
0	991365	34.265860785706	7.25865791863
0	991397	34.267037133988	7.259834266912
0	991416	34.267625308129	7.260422441053
0	1015472	34.993432198123	3.985378275619
0	1016113	35.011362922225	4.003308999721
0	1016399	35.019472677407	0.010636831778001
0	1016424	35.020085210943	0.011249365314001
0	1016451	35.020697744479	0.01186189885
0	1017179	35.040468459987	0.031632614357996
0	1018336	35.072315148912	0.063479303282996
0	1018370	35.073166002082	0.064330156452996
0	1018398	35.073751899806	0.064916054176997
0	1024613	35.258698735714	7.251283104781
0	1024633	35.259286909855	7.251871278922
0	1024646	35.259875083996	7.252459453063
0	1043772	35.813935124818	3.805881201314
0	1044440	35.832454023061	3.824400099557
0	1049455	36.019742496612	0.010612533535998
0	1049481	36.020355030148	0.011225067071997
0	1049506	36.020967563684	0.011837600607997
0	1049978	36.04061862306	0.031488659983999
0	1050723	36.072465311985	0.063335348909
0	1050743	36.073183687432	0.064053724356
0	1050767	36.073902062879	0.064772099803001
0	1060849	36.388581260575	7.380952865785
0	1060866	36.389169434716	7.381541039926
0	1060914	36.390345782998	7.382717388208
0	1071988	36.714429734689	3.706131908846
0	1072625	36.73258280657	3.724284980727
0	1082276	37.020036614059	0.010612533536005
0	1082302	37.020649147595	0.011225067072004
0	1082330	37.021261681131	0.011837600608004
0	1083002	37.040912740507	0.031488659983999
0	1084123	37.072759429432	0.063335348909
0	1084142	37.073477804879	0.064053724356
0	1084171	37.074370141323	0.064946060800004
0	1115112	38.020330731506	0.010612533535998
0	1115133	38.020943265042	0.011225067071997
0	1115166	38.021555798578	0.011837600607997
0	1115907	38.041206857954	0.031488659983999
0	1117086	38.073234752715	0.063516554745
0	1117112	38.073771922326	0.064053724355993
0	1117174	38.075587449279	0.065869251308996
0	1118219	38.105461578154	8.097620419507
0	1118256	38.106637926436	8.098796767789
0	1118286	38.107226100577	8.09938494193
0	1119384	38.137811155909	4.129269427727
0	1120058	38.15611221805	4.147570489868
0	1142120	38.870676135595	7.862622213091
0	1142149	38.871264309736	7.863210387232
0	1142190	38.872440658018	7.864386735514
0	1142463	38.880675095992	3.871839250363
0	1143115	38.899193994235	3.890358148606
0	1147146	39.020624848953	0.010612533535998
0	1147172	39.021237382489	0.011225067071997
0	1147208	39.021849916025	0.011837600607997
0	1147918	39.041500975401	0.031488659983999
0	1148974	39.073347664326	0.063335348909
0	1149005	39.074066039773	0.064053724356
0	1149041	39.074958376217	0.064946060799997
0	1168685	39.665887574227	7.657833650723
0	1168701	39.666475748368	7.658421824864
0	1168738	39.668240270791	7.660186347287
0	1177639	39.942329420497	3.933199457421
0	1178253	39.960260144599	3.951130181523
0	1180193	40.0209189664	0.010612533535998
0	1180223	40.021531499936	0.011225067071997
0	1180250	40.022144033472	0.011837600607997
0	1180930	40.041795092848	0.031488659983999
0	1181959	40.073641781773	0.063335348909
0	1181994	40.07436015722	0.064053724356
0	1182026	40.075078532667	0.064772099803001
0	1197641	40.537561651189	7.529263825346
0	1197708	40.539326173612	7.531028347769
0	1197745	40.540502521894	7.532204696051
0	1203975	40.752245212654	3.742821132131
0	1204397	40.770764110897	3.761340030374
0	1210392	41.0209189664	0.010612533535998
0	1210417	41.021531499936	0.011225067071997
0	1210447	41.022144033472	0.011837600607997
0	1211102	41.041795092848	0.031488659983999
0	1212109	41.073641781773	0.063335348909
0	1212144	41.074492634943	0.064186202079
0	1212172	41.075078532667	0.064772099803001
0	1229317	41.613920329219	3.604202131249
0	1229900	41.632439227462	3.622721029492
0	1233973	41.762728386892	7.75418665871
0	1233989	41.763316561033	7.754774832851
0	1234032	41.764492909315	7.755951181133
0	1241923	42.0209189664	0.010612533535998
0	1241951	42.021531499936	0.011225067071997
0	1241987	42.022144033472	0.011837600607997
0	1242621	42.041795092848	0.031488659983999
0	1243584	42.073641781773	0.063335348909
0	1243603	42.07436015722	0.064053724356
0	1243638	42.075078532667	0.064772099803001
0	1258498	42.546176342704	7.537340497075
0	1258562	42.547940865127	7.539105019498
0	1258599	42.549117213409	7.54028136778
0	1261476	42.643225075969	3.633212760552
0	1262078	42.661155800071	3.651143484654
0	1274065	43.0209189664	0.010612533535998
0	1274091	43.021531499936	0.011225067071997
0	1274118	43.022144033472	0.011837600607997
0	1274808	43.04204623689	0.031739804026003
0	1275883	43.074015460646	0.063709027782004
0	1275914	43.074733836093	0.064427403228997
0	1275940	43.07545221154	0.065145778675998
0	1283791	43.330800646798	7.321670683722
0	1283820	43.33197699508	7.322847032004
0	1283832	43.332565169221	7.323435206145
0	1284826	43.380795448783	3.370489015919
0	1285225	43.399314347026	3.389007914162
0	1303214	44.0209189664	0.010612533535998
0	1303247	44.021531499936	0.011225067071997
0	1303273	44.022144033472	0.011837600607997
0	1304000	44.04204623689	0.031739804026003
0	1305152	44.074015460646	0.063709027782004
0	1305171	44.074733836093	0.064427403228997
0	1305198	44.07545221154	0.065145778675998
0	1308160	44.16130253389	7.151878453367
0	1308228	44.163067056313	7.15364297579
0	1308251	44.163655230454	7.154231149931
0	1320217	44.503619883952	3.493313451088
0	1320924	44.522242249074	3.51193581621
0	1335496	44.9318106586	6.92209246063
0	1335530	44.932987006882	6.923268808912
0	1335575	44.934751529305	6.925033331335
0	1338545	45.0209189674	0.010612533535998
0	1338583	45.021531500936	0.011225067071997
0	1338614	45.022144034472	0.011837600607997
0	1339303	45.041795093848	0.031488659983999
0	1340464	45.073641782773	0.063335348909
0	1340486	45.07436015822	0.064053724355993
0	1340520	45.07521101139	0.064904577525994
0	1344769	45.20237076346	3.192064330596
0	1345395	45.220301487562	3.209995054698
0	1360689	45.657029374453	6.647017059036
0	1360726	45.658205722735	6.648193407318
0	1360742	45.658793896876	6.648781581459
0	1369990	45.992876808964	2.9825703761
0	1370610	46.011395707207	3.001089274343
0	1370947	46.021221997603	0.010612533535998
0	1370970	46.021834531139	0.011225067071997
0	1370997	46.022447064675	0.011837600607997
0	1371685	46.042098124051	0.031488659983999
0	1372750	46.074167592738	0.063558128670998
0	1372770	46.074663188423	0.064053724355993
0	1372787	46.07538156387	0.064772099802994
0	1384821	46.457534380354	6.44722794749
0	1384883	46.459298902777	6.448992469913
0	1384936	46.460475251059	6.450168818195
0	1403149	47.021525027806	0.010612533535998
0	1403156	47.021593381573	3.011286948709
0	1403180	47.022137561342	0.011225067071997
0	1403218	47.022750094878	0.011837600607997
0	1403860	47.040112279816	3.029805846952
0	1403958	47.042401154254	0.031488659983999
0	1405130	47.074247843179	0.063335348909
0	1405166	47.075260722357	0.064348228086999
0	1405181	47.075706890579	0.064794396308997
0	1417087	47.442726066529	6.432419633665
0	1417121	47.443902414811	6.433595981947
0	1417179	47.445666937234	6.43536050437
0	1430767	47.852095268665	2.841788834801
0	1431271	47.870614166908	2.860307733044
0	1434472	48.016195854004	6.00588942114
0	1434498	48.017372202286	6.007065769422
0	1434540	48.019136724709	6.008830291845
0	1434606	48.021828058009	0.010612533535998
0	1434627	48.022440591545	0.011225067071997
0	1434650	48.023053125081	0.011837600607997
0	1435109	48.042704184457	0.031488659983999
0	1435868	48.074568587916	0.063353063442996
0	1435883	48.075269248829	0.064053724356
0	1435901	48.075987624276	0.064772099802994
0	1460804	48.876694622287	5.866388189423
0	1460828	48.877870970569	5.867564537705
0	1460895	48.879635492992	5.869329060128
0	1461171	48.887869930966	2.877260466899
0	1461809	48.906388829209	2.895779365142
0	1465714	49.022131088212	0.010612533535998
0	1465746	49.022743621748	0.011225067071997
0	1465771	49.023356155284	0.011837600607997
0	1466427	49.043277298096	0.031758743419999
0	1467570	49.075246521852	0.063727967176
0	1467602	49.075964897299	0.064446342623
0	1467638	49.076815750469	0.065297195793001
0	1485171	49.609559601973	2.598647107703
0	1485658	49.623087607216	5.612781174352
0	1485680	49.623675781357	5.613369348493
0	1485722	49.624852129639	5.614545696775
0	1485818	49.628078500216	2.617166005946
0	1498681	50.022434118415	0.010612533535998
0	1498716	50.023046651951	0.011225067071997
0	1498743	50.023659185487	0.011837600607997
0	1499540	50.043715370017	0.031893785137996
0	1500816	50.075964897199	0.064143312319999
0	1500854	50.076815750369	0.064994165489999
0	1500891	50.077401648093	0.065580063214
0	1508063	50.328896576416	5.318590142552
0	1508098	50.330661098839	5.320354664975
0	1508126	50.331837447121	5.321531013257
0	1514945	50.574165193213	2.56294966874
0	1515600	50.592095917315	2.580880392842
0	1531614	51.043515836512	0.031694250633002
0	1532018	51.054314861585	0.042493275706001
0	1532387	51.06439196296	0.052570377081004
0	1532415	51.065268107002	0.053446521123
0	1541110	51.329968964398	5.319359500331
0	1541122	51.330557138539	5.319947674472
0	1541140	51.33114531268	5.320535848613
0	1543887	51.417018737266	2.40550018259
0	1544493	51.435537635509	2.424019080833
0	1558566	51.855796646452	4.844884152182
0	1558587	51.856384820593	4.845472326323
0	1558637	51.858149343016	4.847236848746
0	1564929	52.043818866715	0.031694250633002
0	1565320	52.054617891788	0.042493275706001
0	1565643	52.064694993163	0.052570377081004
0	1565671	52.065571137205	0.053446521123
0	1569021	52.170469811887	2.158648227008
0	1569610	52.18898871013	2.177167125251
0	1591328	52.979209255762	4.967993731289
0	1591363	52.980385604044	4.969170079571
0	1591386	52.980973778185	4.969758253712
0	1593487	53.044121896918	0.031694250633002
0	1593866	53.054920921991	0.042493275706001
0	1594193	53.064998023366	0.052570377081004
0	1594233	53.065874167408	0.053446521123
0	1603577	53.356437902098	2.344616316219
0	1604139	53.372536048138	2.360714462259
0	1604184	53.37371239642	2.361890810541
0	1604596	53.384922241274	2.373100655395
0	1604613	53.385288711311	2.373467125432
0	1604640	53.385932404352	2.374110818473
0	1604676	53.387219790434	2.375398204555
0	1613164	53.645610557515	4.634092002839
0	1613182	53.646198731656	4.63468017698
0	1613219	53.647375079938	4.635856525262
0	1626416	54.044424927121	0.031694250633002
0	1626778	54.055425854999	0.042695178511003
0	1627107	54.065301053569	0.052570377081004
0	1627138	54.066177197611	0.053446521123
0	1627779	54.084814932889	2.072690316807
0	1628355	54.101283808837	2.089159192755
0	1628413	54.102460157119	2.090335541037
0	1628786	54.113081827832	2.10095721175
0	1628803	54.113448297869	2.101323681787
0	1628827	54.11409199091	2.101967374828
0	1628885	54.115800994433	2.103676378351
0	1631530	54.197317901773	4.185496316894
0	1631594	54.199082424196	4.187260839317
0	1631674	54.200846946619	4.18902536174
0	1656926	55.044727957324	0.031694250633002
0	1657171	55.055526982397	0.042493275706001
0	1657380	55.065604083772	0.052570377081004
0	1657400	55.066480227814	0.053446521123
0	1661273	55.204110323212	2.191682676927
0	1661825	55.219991025019	2.207563378734
0	1661897	55.222386193131	2.209958546846
0	1662222	55.232377218155	2.21994957187
0	1662241	55.232743688192	2.220316041907
0	1662258	55.233387381233	2.220959734948
0	1662320	55.235096384756	2.222668738471
0	1669860	55.472905905649	4.46108431977
0	1685083	55.934622606334	1.921891929846
0	1685641	55.949915134	1.937184457512
0	1685705	55.951679656423	1.938948979935
0	1686124	55.963255971314	1.950525294826
0	1686129	55.96327304194	1.950542365452
0	1686156	55.963899664355	1.951168987867
0	1686224	55.965608667878	1.95287799139
0	1687314	56.000498110126	3.988373494044
0	1688872	56.045030987527	0.031694250633002
0	1689259	56.055919600564	0.042582863669999
0	1689601	56.065907113975	0.052570377081004
0	1689643	56.066783258017	0.053446521123
0	1715963	56.892170107882	1.879136401191
0	1716908	56.920437002825	1.907403296134
0	1716926	56.920803472862	1.907769766171
0	1716958	56.921447165903	1.908413459212
0	1717019	56.923438796468	1.910405089777
0	1717115	56.92628420806	1.913250501369
0	1717191	56.928636904624	1.915603197933
0	1720930	57.04533401773	0.031694250633002
0	1721295	57.056133042803	0.042493275706001
0	1721618	57.066210144178	0.052570377081004
0	1721662	57.06708628822	0.053446521123
0	1723319	57.11449993318	4.102072286895
0	1737916	57.633857699683	3.621127023195
0	1739348	57.67914710854	1.665810371646
0	1739868	57.694702315235	1.681365578341
0	1739921	57.696204158629	1.682867421735
0	1740305	57.708002177624	1.69466544073
0	1740321	57.708368647661	1.695031910767
0	1740339	57.709012340702	1.695675603808
0	1740380	57.710299726784	1.69696298989
0	1751632	58.045637047933	0.031694250633002
0	1752040	58.056436073006	0.042493275706001
0	1752422	58.066513174381	0.052570377081004
0	1752463	58.067389318423	0.053446521123
0	1761940	58.336137624037	3.323103917346
0	1765522	58.43789175043	1.424251983333
0	1766443	58.462006890211	1.448367123114
0	1766533	58.464359586775	1.450719819678
0	1766607	58.466158645373	1.452518878276
0	1766628	58.46652511541	1.452885348313
0	1766656	58.467168808451	1.453529041354
0	1766723	58.468877811974	1.455238044877
0	1782818	59.220751532101	3.207414795207
0	1783281	59.252445782734	0.031694250633002
0	1783419	59.263244807807	0.042493275706001
0	1783533	59.273321909182	0.052570377081004
0	1783542	59.274198053224	0.053446521123
0	1785534	59.451315795373	1.437372998073
0	1785765	59.468372845462	1.454430048162
0	1785807	59.470725542026	1.456782744726
0	1785921	59.479582690316	1.465639893016
0	1785931	59.479949160353	1.466006363053
0	1785947	59.480592853394	1.466650056094
0	1785979	59.482301856917	1.468359059617
0	1789702	59.812454717947	2.79881495085
0	1793012	60.110659007434	0.889907475333
0	1793032	60.112423529857	0.891671997756
0	1793041	60.113011703998	0.892260171897
0	1793136	60.121246141972	2.107303344672
0	1793252	60.139514076518	0.918762544417
0	1793257	60.139880546555	0.919129014454
0	1793262	60.140524239596	0.919772707495
0	1793272	60.141811625678	0.921060093577
0	1793277	60.151765177842	0.931013645741

