version 2
run Net10-0-20190304-10:42:39-16236
attr configname Net10
attr datetime 20190304-10:42:39
attr experiment Net10
attr inifile omnetpp.ini
attr iterationvars ""
attr iterationvarsf ""
attr measurement ""
attr network mogp.networks.Net10
attr processid 16236
attr repetition 0
attr replication #0
attr resultdir results
attr runnumber 0
attr seedset 0
param **.eventStorage.packetLength "1024 byte"
param **.node[*].operator[*].packetLength "1024 byte"

vector 0 Net10.eventStorage "End-to-End Delay" ETV
0	174	5	0
0	175	5	0
0	176	5	0
0	177	5	0
0	178	5	0
0	179	5	0
0	180	5	0
0	181	5	0
0	182	5	0
0	183	5	0
0	184	5	0
0	185	5	0
0	44871	6.022310484382	0.022040215112
0	44906	6.023028859829	0.022758590559
0	44938	6.023747235276	0.023476966006
0	45798	6.042677296501	0.042407027231
0	45875	6.044114047395	0.043843778125
0	45936	6.045550798289	0.045280529019
0	45966	6.046269173736	0.045998904466
0	46259	6.053021478675	0.052751209405001
0	46847	6.065952150786	0.065681881516
0	47303	6.075589713872	0.075319444602
0	47329	6.076233406913	0.075963137643
0	47683	6.084433844408	0.084163575138001
0	87983	7.022145092985	0.021874822915001
0	88025	7.022863468432	0.022593198362
0	88065	7.023581843879	0.023311573809
0	88992	7.043576792599	0.043306522529
0	89029	7.044295168046	0.044024897976001
0	89122	7.046450294387	0.046180024317001
0	89158	7.047168669834	0.046898399764
0	89406	7.052961419411	0.052691149341
0	89978	7.066191750504	0.065921480434
0	90356	7.074610466169	0.074340196099
0	90378	7.07525415921	0.07498388914
0	90810	7.084946021639	0.084675751569
0	131035	8.022145093785	0.021874822914999
0	131085	8.022863469232	0.022593198361999
0	131128	8.023581844679	0.023311573809
0	132101	8.042700649357	0.042430378486999
0	132196	8.044137400251	0.043867129380999
0	132242	8.044867658206	0.044597387335999
0	132279	8.045586033653	0.045315762783
0	132625	8.052961420211	0.052691149340999
0	133247	8.065892092322	0.065621821452
0	133655	8.074610466969	0.074340196099
0	133682	8.07525416001	0.074983889139999
0	134092	8.084367483592	0.084097212722
0	172585	9.022444857463	0.022174585793001
0	172628	9.02316323291	0.02289296124
0	172673	9.023881608357	0.023611336687001
0	173464	9.043147145119	0.042876873449002
0	173497	9.043865520566	0.043595248896001
0	173565	9.04530227146	0.045031999790002
0	173592	9.046020646907	0.045750375237001
0	173850	9.052830946671	0.052560675001001
0	174402	9.065761618782	0.065491347112001
0	174760	9.074479993429	0.074209721759001
0	174786	9.07512368647	0.074853414800002
0	175166	9.08464526217	0.084374990500001
0	212862	10.022145095385	0.021874822915001
0	212898	10.022863470832	0.022593198362001
0	212938	10.023581846279	0.023311573809
0	213814	10.042975903087	0.042705630617
0	213858	10.043852047129	0.043581774659001
0	213945	10.045288798023	0.045018525553001
0	213975	10.046042407234	0.045772134764
0	214305	10.053484358782	0.053214086312002
0	214892	10.066415030893	0.066144758423
0	215326	10.076057135143	0.075786862673
0	215356	10.076700828184	0.076430555714001
0	215690	10.08464526297	0.084374990500001
0	255221	11.022145096185	0.021874822915001
0	255267	11.022863471632	0.022593198362001
0	255309	11.023581847079	0.023311573809
0	256121	11.043617080859	0.043346807589002
0	256158	11.044493224901	0.044222951631001
0	256200	11.045369368943	0.045099095673001
0	256232	11.04608774439	0.045817471120001
0	256499	11.052830948271	0.052560675001001
0	257058	11.066545275879	0.066275002609
0	257361	11.074479995029	0.074209721759001
0	257387	11.07512368807	0.074853414800002
0	257758	11.08464526377	0.084374990500001
0	295950	12.022190433341	0.021920159271001
0	295988	12.022908808788	0.022638534718
0	296033	12.023627184235	0.023356910165001
0	297011	12.04401486862	0.043744594550001
0	297056	12.044733244067	0.044462969997001
0	297094	12.045451619514	0.045181345444
0	297129	12.046169994961	0.045899720891001
0	297458	12.053545159671	0.053274885601001
0	298034	12.065892095522	0.065621821452
0	298410	12.074610470169	0.074340196099001
0	298437	12.07525416321	0.07498388914
0	298829	12.084367486792	0.084097212722
0	339284	13.022145097785	0.021874822915001
0	339325	13.022863473232	0.022593198362001
0	339366	13.023581848679	0.023311573809
0	340300	13.043576797399	0.043306522529001
0	340344	13.044295172846	0.044024897976001
0	340391	13.045013548293	0.044743273423
0	340420	13.04573192374	0.045461648870001
0	340741	13.052961424211	0.052691149341001
0	341372	13.06647205873	0.06620178386
0	341750	13.074946026431	0.074675751561001
0	341780	13.075589719472	0.075319444602
0	342190	13.084946026439	0.084675751569
0	379534	14.022145098585	0.021874822915001
0	379571	14.022863474032	0.022593198362001
0	379611	14.023581849479	0.023311573809
0	380507	14.042677302901	0.042407027231
0	380597	14.044114053795	0.043843778125
0	380629	14.044832429242	0.044562153572
0	380672	14.045550804689	0.045280529019001
0	381019	14.052961425011	0.052691149341001
0	381639	14.066191756104	0.065921480434
0	382037	14.074946027231	0.074675751561001
0	382064	14.075589720272	0.075319444602
0	382464	14.084792914977	0.084522639307
0	423660	15.022145099385	0.021874822915001
0	423699	15.022863474832	0.022593198362001
0	423735	15.023581850279	0.023311573809
0	424645	15.043434903424	0.043164626954001
0	424710	15.044871654318	0.044601377848
0	424738	15.045590029765	0.045319753295001
0	424770	15.046308405212	0.046038128742
0	425072	15.052961425811	0.052691149341001
0	425637	15.065892097922	0.065621821452
0	426075	15.075832623289	0.075562346819
0	426106	15.07647631633	0.076206039860001
0	426436	15.08439923523	0.084128958760001
0	462954	16.022145100385	0.021874822914999
0	462996	16.022863475832	0.022593198361999
0	463031	16.023581851279	0.023311573809
0	463950	16.045082614072	0.044812336602
0	463988	16.045958758114	0.045688480643999
0	464044	16.047272974177	0.047002696706997
0	464078	16.047991349624	0.047721072153998
0	464259	16.052830952471	0.052560675000997
0	464961	16.069176575227	0.068906297757
0	465188	16.074479999229	0.074209721758997
0	465225	16.075330852399	0.075060574928997
0	465597	16.08439923623	0.084128958759997
0	504281	17.022487819223	0.022217540752997
0	504323	17.02320619467	0.022935916199998
0	504359	17.023924570117	0.023654291646999
0	505213	17.042716529977	0.042446251506998
0	505255	17.043579083695	0.043308805224999
0	505304	17.044455227737	0.044184949266999
0	505385	17.045891978631	0.045621700161
0	505715	17.05345261875	0.053182340279999
0	506344	17.066716530001	0.066446251530998
0	506725	17.075256380078	0.074986101607998
0	506788	17.076619797318	0.076349518847998
0	507137	17.084611179249	0.084340900778997
0	545456	18.022145102385	0.021874822914999
0	545496	18.022863477832	0.022593198361999
0	545522	18.023581853279	0.023311573809
0	546315	18.042888627956	0.042618348485998
0	546360	18.043764771998	0.043494492527998
0	546420	18.045078988061	0.044808708590999
0	546456	18.045797363508	0.045527084038
0	546715	18.052830954471	0.052560675000997
0	547223	18.065761626582	0.065491347111998
0	547537	18.074480001229	0.074209721758997
0	547579	18.075372337673	0.075102058202997
0	547901	18.08439923823	0.084128958759997
0	585384	19.022316462304	0.022046181834003
0	585420	19.023034837751	0.022764557281
0	585461	19.023753213198	0.023482932728001
0	586361	19.043002246263	0.042731965793003
0	586407	19.043764772998	0.043494492528001
0	586448	19.044721942839	0.044451662369003
0	586484	19.045440318286	0.045170037816003
0	586787	19.052830955471	0.052560675001001
0	587375	19.065864800003	0.065594519533001
0	587758	19.074977778071	0.074707497601
0	587794	19.075621471112	0.075351190642003
0	588159	19.084619799326	0.084349518856001
0	627125	20.022145104385	0.021874822915002
0	627173	20.022863479832	0.022593198362003
0	627217	20.023581855279	0.023311573809
0	628213	20.043145104385	0.042874822915003
0	628268	20.043863479832	0.043593198362
0	628332	20.045300230726	0.045029949256001
0	628366	20.046018606173	0.045748324703002
0	628714	20.052897938747	0.052627657277
0	629336	20.065864800959	0.065594519489
0	629762	20.075018575133	0.074748293663003
0	629801	20.075662268174	0.075391986704002
0	630251	20.084825899061	0.084555617591
0	671557	21.022145104385	0.021874822915002
0	671597	21.022863479832	0.022593198362003
0	671654	21.023581855279	0.023311573809
0	672684	21.043740945001	0.043470663531
0	672767	21.045177695895	0.044907414425001
0	672850	21.046614446789	0.046344165319002
0	672887	21.047332822236	0.047062540766003
0	673166	21.053183653035	0.052913371565001
0	673828	21.066114325146	0.065844043676002
0	674273	21.075304289421	0.075034007951
0	674300	21.075947982462	0.075677700992003
0	674745	21.084770594577	0.084500313107
0	719286	22.022334451144	0.022064169674003
0	719324	22.023052826591	0.022782545121
0	719362	22.023771202038	0.023500920568001
0	720273	22.043114800959	0.042844519489002
0	720325	22.043990945001	0.043720663531001
0	720393	22.045427695895	0.045157414425002
0	720429	22.046146071342	0.045875789872003
0	720723	22.052830956471	0.052560675001001
0	721256	22.065761628582	0.065491347112001
0	721647	22.074818883056	0.074548601586002
0	721671	22.075462576097	0.075192294627001
0	722013	22.08445781117	0.084187529700003
0	756312	23.022145104385	0.021874822915002
0	756359	23.022863479832	0.022593198362003
0	756395	23.023581855279	0.023311573809
0	757258	23.043114800959	0.042844519489002
0	757307	23.043990945001	0.043720663531001
0	757377	23.045427695895	0.045157414425002
0	757408	23.046146071342	0.045875789872003
0	757698	23.052830956471	0.052560675001001
0	758228	23.065761628582	0.065491347112001
0	758612	23.075480991002	0.075210709532001
0	758638	23.076124684043	0.075854402573
0	758949	23.084268464411	0.083998182941002
0	794803	24.022145104385	0.021874822915002
0	794845	24.022863479832	0.022593198362003
0	794880	24.023581855279	0.023311573809
0	795697	24.043114800959	0.042844519489002
0	795735	24.043833176406	0.043562894936002
0	795776	24.044676068047	0.044405786577002
0	795812	24.045552212089	0.045281930619002
0	796125	24.053228054705	0.052957773235001
0	796633	24.065761628582	0.065491347112001
0	796985	24.074480003229	0.074209721759001
0	797037	24.075767389311	0.075497107841002
0	797389	24.084724649512	0.084454368042003
0	831988	25.022396248427	0.022125966957002
0	832032	25.023114623874	0.022844342404003
0	832071	25.023832999321	0.023562717851
0	832884	25.043423705435	0.043153423965002
0	832918	25.044142080882	0.043871799412003
0	832946	25.044895690093	0.044625408623002
0	832983	25.04561406554	0.045343784070003
0	833237	25.052830956471	0.052560675001001
0	833736	25.065761628582	0.065491347112001
0	834051	25.074818883056	0.074548601586002
0	834084	25.075462576097	0.075192294627001
0	834442	25.084818883056	0.084548601586
0	871456	26.031884513475	0.031614232005001
0	872075	26.044807836631	0.044537555161
0	872109	26.045451529672	0.045181248202002
0	872419	26.053106104382	0.052835822912002
0	872426	26.053278730712	0.053008449242
0	872453	26.053833491453	0.053563209983
0	872471	26.053982248424	0.053711966954001
0	872500	26.0545518669	0.054281585430001
0	872863	26.063470651417	0.063200369947001
0	873306	26.074490851922	0.074220570452002
0	873336	26.075013286054	0.074743004584001
0	875014	26.117451276303	0.117180994833
0	911317	27.032061971657	0.031488659984003
0	911971	27.045221904634	0.044648592961003
0	912031	27.0465822882	0.046008976527002
0	912344	27.053712164888	0.053138853215003
0	912356	27.053873698135	0.053300386462002
0	912368	27.054010949635	0.053437637962002
0	912405	27.054621255797	0.054047944124001
0	912412	27.054729325082	0.054156013409003
0	912801	27.06377368162	0.063200369947001
0	913261	27.075216893744	0.074643582071001
0	913315	27.076531109807	0.075957798134002
0	914811	27.118656289243	0.11808297757
0	949321	28.032938115599	0.032061773722997
0	949993	28.04568115441	0.044804812533997
0	950025	28.046324847451	0.045448505574999
0	950346	28.053615581623	0.052739239746998
0	950403	28.054628630002	0.053752288125999
0	950415	28.054920946101	0.054044604224998
0	950443	28.055367869707	0.054491527830997
0	950468	28.055605469024	0.054729127147997
0	950868	28.064455006996	0.063578665119998
0	951381	28.076190558003	0.075314216126998
0	951418	28.077066702045	0.076190360168997
0	953338	28.11977148721	0.118895145334
0	991597	29.032499563633	0.031623220757002
0	992234	29.045716357892	0.044840015016003
0	992275	29.046360050933	0.045483708057002
0	992590	29.054187251973	0.053310909097
0	992596	29.054250647515	0.053374304639
0	992607	29.054448541611	0.053572198735001
0	992620	29.054863181051	0.053986838175003
0	992655	29.055166917058	0.054290574182001
0	993068	29.064379172678	0.063502829802001
0	993559	29.076038201268	0.075161858392001
0	993577	29.076476273289	0.075599930413002
0	995260	29.118895344168	0.118019001292
0	1031852	30.032536362779	0.031660018903001
0	1032524	30.04574985003	0.044873506154001
0	1032562	30.046393543071	0.045517199195
0	1032866	30.053615583623	0.052739239747002
0	1032921	30.054485340757	0.053608996881003
0	1032952	30.054929799686	0.054053455810003
0	1032963	30.055066704023	0.054190360147
0	1032976	30.055203716204	0.054327372328
0	1033385	30.064412664816	0.063536320940003
0	1033876	30.075752487982	0.074876144106003
0	1033924	30.076628632024	0.075752288148003
0	1035740	30.11977148921	0.118895145334
0	1074270	31.03236500486	0.031488659984003
0	1074927	31.045716359892	0.044840015016
0	1074964	31.046360052933	0.045483708057002
0	1075284	31.053615584623	0.052739239747002
0	1075314	31.054313982838	0.053437637962002
0	1075333	31.054491728665	0.053615383789001
0	1075358	31.054895346104	0.054019001228003
0	1075363	31.055032358285	0.054156013409003
0	1075776	31.064379174678	0.063502829802001
0	1076254	31.076038203268	0.075161858392001
0	1076275	31.076476275289	0.075599930413002
0	1078082	31.118895346168	0.118019001292
0	1115256	32.03337415819	0.032497812313999
0	1115811	32.045413901037	0.044537555161
0	1115856	32.046057594078	0.045181248201999
0	1116250	32.055323136168	0.054446790291998
0	1116284	32.056041511615	0.055165165738998
0	1116306	32.056568844348	0.055692498471998
0	1116314	32.056591975303	0.055715629426999
0	1116347	32.057468119345	0.056591773468995
0	1116615	32.064076715823	0.063200369946998
0	1117180	32.078034373377	0.077158027501
0	1117215	32.078910517419	0.078034171542996
0	1119009	32.122477480557	0.121601134681
0	1157327	33.03236500686	0.031488659983999
0	1158422	33.053812579494	0.052936232618002
0	1158451	33.054313984838	0.053437637961999
0	1158475	33.054688723536	0.053812376659998
0	1158485	33.054849796677	0.053973449800999
0	1158515	33.055385608516	0.05450926164
0	1158553	33.055921420355	0.055045073479
0	1158873	33.063181062398	0.062304715522004
0	1159323	33.073149641116	0.072273294239999
0	1159852	33.084495729369	0.083619382492998
0	1160040	33.088726344815	0.087849997939003
0	1162714	33.147243554675	0.146367207799
0	1203517	34.032517365595	0.031641017718997
0	1204572	34.054372368885	0.053496021008996
0	1204582	34.054466343573	0.053589995696996
0	1204620	34.05518471902	0.054308371143996
0	1204651	34.055686584948	0.054810237071997
0	1209060	34.147791516649	0.146915168773
0	1209093	34.14843520969	0.147558861814
0	1209446	34.156323920634	0.155447572758
0	1209933	34.166509850335	0.16563350245899
0	1210468	34.177911457488	0.177035109612
0	1210719	34.18375249209	0.182876144214
0	1217968	34.345466777966	0.34459043009
0	1249923	35.032970238323	0.032093889447005
0	1250949	35.054231652331	0.053355303455
0	1250957	35.054313986838	0.053437637961999
0	1250993	35.055032362285	0.054156013408999
0	1250998	35.055107796373	0.054231447497003
0	1259761	35.247677160319	0.246800811443
0	1259805	35.24832085336	0.247444504484
0	1260129	35.2561480544	0.255271705524
0	1260634	35.266803063521	0.265926714645
0	1261202	35.278361924124	0.277485575248
0	1261444	35.282615890745	0.281739541869
0	1273860	35.549333422619	0.548457073743
0	1295259	36.03236500986	0.031488659983999
0	1296182	36.053979552465	0.053103202589
0	1296196	36.054313987838	0.053437637961999
0	1296215	36.054592086001	0.053715736125
0	1296240	36.055032363285	0.054156013408999
0	1309872	36.356385416104	0.355509066228
0	1309914	36.357029109145	0.35615275926899
0	1310315	36.365281905612	0.364405555736
0	1310803	36.37515926869	0.374282918814
0	1311381	36.386896448217	0.386020098341
0	1311829	36.396458376194	0.395582026318
0	1329766	36.802457871089	0.801581521213
0	1339153	37.032803081681	0.031632614358003
0	1340195	37.05390970707	0.052739239746998
0	1340246	37.054785851112	0.053615383789001
0	1340263	37.055028714581	0.053858247257999
0	1340303	37.05556452642	0.054394059097
0	1358246	37.434508616557	0.433338149234
0	1358284	37.435152309598	0.433981842275
0	1358706	37.443713278377	0.442542811054
0	1359192	37.453795354616	0.452624887293
0	1359720	37.465422755769	0.464252288446
0	1359970	37.470818017086	0.469647549763
0	1381998	37.950573794321	0.949403326998
0	1385915	38.03281942235	0.031648954227002
0	1386898	38.05390970787	0.052739239746998
0	1386936	38.054768400328	0.053597932205001
0	1386944	38.054785851912	0.053615383789001
0	1386986	38.055486775775	0.054316307652002
0	1409462	38.552039484457	0.550869016334
0	1409495	38.552683177498	0.551512709375
0	1409841	38.560657723715	0.559487255592
0	1410315	38.570813337043	0.56964286892
0	1410855	38.582324390399	0.581153922276
0	1411098	38.587566389024	0.586395920901
0	1432166	39.033140011636	0.031969542713
0	1433165	39.05390970867	0.052739239746998
0	1433206	39.054785852712	0.053615383789001
0	1433220	39.055088989614	0.053918520690999
0	1433262	39.055807365061	0.054636896138
0	1445846	39.329842154966	1.328671686843
0	1468364	39.8267677753	0.825597306377
0	1468382	39.827303587139	0.826133118216
0	1468812	39.835903640394	0.834733171471
0	1469253	39.84533118169	0.844160712767
0	1469805	39.857046613641	0.855876144718
0	1470061	39.862206907888	0.861036438965
0	1478028	40.033182823144	0.032012353420996
0	1479069	40.054497039223	0.053326569500001
0	1479108	40.055131801122	0.053961331399002
0	1479130	40.055373183265	0.054202713541997
0	1479161	40.055850176569	0.054679706846002
0	1511554	40.782044109095	1.780873640172
0	1518551	40.945320064186	0.944149594463
0	1518586	40.945963757227	0.944793287504
0	1518941	40.953790958267	0.952620488544
0	1519404	40.964093916772	0.962923447049
0	1519912	40.975657725647	0.974487255924
0	1520246	40.983083052826	0.981912583103
0	1522733	41.03281942475	0.031648954227002
0	1523810	41.053930535878	0.052760065355002
0	1523854	41.054768402728	0.053597932205001
0	1523885	41.055244751941	0.054074281417996
0	1523898	41.055486778175	0.054316307652002
0	1568900	42.012046615365	0.010876144042001
0	1569462	42.022949926526	0.021779455202996
0	1570011	42.034429131848	0.033258660525
0	1570904	42.053626167373	0.052455696049996
0	1570923	42.05408832831	0.052917856987001
0	1576941	42.186603957803	2.18543348808
0	1578371	42.219440456146	1.218269985623
0	1578410	42.220084149187	1.218913678664
0	1578660	42.22601162525	1.224841154727
0	1579237	42.239168581414	1.237998110891
0	1579703	42.250093052226	1.248922581703
0	1579819	42.252721484352	1.251551013829
0	1613384	43.012206910408	0.011036438284997
0	1613912	43.022949927326	0.021779455202996
0	1614450	43.034211011624	0.033040539501002
0	1615318	43.053626168173	0.052455696049996
0	1615338	43.054085803462	0.052915331339001
0	1627573	43.319052942151	1.317882470828
0	1627607	43.319641116292	1.318470644969
0	1627690	43.321405638715	1.320235167392
0	1628130	43.331147923258	1.329977451935
0	1628219	43.332912445681	1.331741974358
0	1628649	43.342046616429	1.340876145106
0	1629939	43.368245807072	1.367075335749
0	1641146	43.608040244218	2.606869773695
0	1659874	44.012132238381	0.010961765457999
0	1660403	44.022949928126	0.021779455202996
0	1660992	44.034706911226	0.033536438302995
0	1661946	44.053626168973	0.052455696049996
0	1661970	44.054011131435	0.052840658511997
0	1682493	44.501282965561	1.500112493438
0	1682527	44.501871139702	1.500700667579
0	1682648	44.504373118836	1.503202646713
0	1683070	44.513377946668	1.512207474545
0	1683187	44.515730643232	1.514560171109
0	1683580	44.524268839597	1.523098367474
0	1685096	44.557046617401	1.555876145278
0	1705008	45.012046617765	0.010876144042001
0	1705537	45.022949928926	0.021779455202996
0	1706054	45.034211013224	0.033040539501002
0	1706948	45.053884863655	0.052714389932
0	1706953	45.053925510819	0.052755037095999
0	1731739	45.651751585357	1.650581112434
0	1731769	45.652339759498	1.651169286575
0	1731852	45.654104281921	1.652933808998
0	1732317	45.663846566464	1.662676093541
0	1732411	45.665611088887	1.664440615964
0	1732836	45.674546617765	1.673376144842
0	1734067	45.700944450278	1.699773977355
0	1748346	46.012046617765	0.010876144042001
0	1748893	46.022949928926	0.021779455202996
0	1749439	46.034211013224	0.033040539501002
0	1750395	46.053899950245	0.052729476521996
0	1750400	46.053925510819	0.052755037095999
0	1784478	46.774576020526	1.773405546803
0	1784512	46.775164194667	1.773993720944
0	1784613	46.77692871709	1.775758243367
0	1785068	46.786671001633	1.78550052791
0	1785168	46.788435524056	1.787265050333
0	1785612	46.797747848466	1.796577374743
0	1786770	46.821416188883	1.82024571516
0	1795995	47.012046618765	0.010876144042001
0	1796565	47.02314426104	0.021973786317005
0	1797159	47.035028025987	0.033857551263999
0	1798088	47.053820501887	0.052650027163999
0	1798101	47.054117571476	0.052947096753002
0	1835285	47.878578883183	1.87740840946
0	1835313	47.879167057324	1.877996583601
0	1835423	47.880931579747	1.879761106024
0	1835936	47.89067386429	1.889503390567
0	1836023	47.892438386713	1.89126791299
0	1836492	47.901520303865	1.900349830142
0	1837773	47.928705943759	1.927535470036
0	1841798	48.012046619765	0.010876144042001
0	1842331	48.022949930926	0.021779455202996
0	1842902	48.034211015224	0.033040539501002
0	1843870	48.053626171773	0.052455696049996
0	1843883	48.053925512819	0.052755037095999
0	1889408	49.012046620765	0.010876144042001
0	1889957	49.022982157697	0.021811680974004
0	1890498	49.034589955966	0.033419479243001
0	1891472	49.053658398544	0.052487921821005
0	1891501	49.054117573476	0.052947096753002
0	1891586	49.056103513465	2.054933038742
0	1891617	49.056691687606	2.055521212883
0	1891714	49.058456210029	2.057285735306
0	1892187	49.068198494572	2.067028019849
0	1892278	49.069963016995	2.068792542272
0	1892707	49.078828542041	2.077658067318
0	1893980	49.106783462965	2.105612988242
0	1937001	50.012046621765	0.010876144042001
0	1937567	50.022949932926	0.021779455202996
0	1938159	50.035028028987	0.033857551263999
0	1939081	50.053626173773	0.052455696049996
0	1939108	50.054117574476	0.052947096753002
0	1953313	50.365967325472	2.364796849749
0	1953348	50.366555499613	2.36538502389
0	1953456	50.368320022036	2.367149546313
0	1953928	50.378062306579	2.376891830856
0	1954020	50.379826829002	2.378656353279
0	1954426	50.388692354048	2.387521878325
0	1955739	50.417133292527	2.415962816804
0	1984126	51.012221536891	0.011051058168
0	1984678	51.022949933926	0.021779455203003
0	1985235	51.034211018224	0.033040539501002
0	1986151	51.053626174773	0.052455696050004
0	1986184	51.054100429945	0.052929951222005
0	2009586	51.546432826459	2.545262349736
0	2009621	51.5470210006	2.545850523877
0	2009723	51.548785523023	2.5476150463
0	2010184	51.558527807566	2.557357330843
0	2010267	51.560292329989	2.559121853266
0	2010662	51.569157855035	2.567987378312
0	2011864	51.596257149665	2.595086672942
0	2031781	52.012219964479	0.011049484756001
0	2032355	52.022949934926	0.021779455202996
0	2032930	52.034211019224	0.033040539500995
0	2033856	52.053626175773	0.052455696049996
0	2033900	52.054379160959	0.053208681236001
0	2066665	52.775128607008	2.773958129285
0	2066715	52.775716781149	2.774546303426
0	2066813	52.777481303572	2.776310825849
0	2067905	52.798120716755	2.796950239032
0	2067953	52.798904425462	2.797733947739
0	2067991	52.799548118503	2.79837764078
0	2069229	52.825204519315	2.824034041592
0	2078314	53.012046624765	0.010876144042001
0	2078896	53.022949935926	0.021779455203003
0	2079471	53.034962822255	0.033792341531999
0	2080411	53.053781143923	0.052610663199999
0	2080428	53.054117577476	0.052947096753002
0	2123015	53.95265323729	2.951482758567
0	2123052	53.953241411431	2.952070932708
0	2123168	53.955594107995	2.954423629272
0	2123624	53.964748218397	2.963577739674
0	2123739	53.967100914961	2.965930436238
0	2124177	53.975730836255	2.974560357532
0	2125605	54.002572941545	3.001402462822
0	2126099	54.012046625765	0.010876144042001
0	2126679	54.022949936926	0.021779455202996
0	2127259	54.03454170136	0.033371219636997
0	2128185	54.053656441986	0.052485960262999
0	2128204	54.054117578476	0.052947096752995
0	2171360	55.0121989845	0.011028501776998
0	2171878	55.022949937926	0.021779455203003
0	2172396	55.034610729293	0.033440246570002
0	2173209	55.053626178773	0.052455696050004
0	2173232	55.054077877554	0.052907394831003
0	2179271	55.192524326518	3.191353846795
0	2179307	55.193112500659	3.191942020936
0	2179399	55.194877023082	3.193706543359
0	2180401	55.215636370029	3.214465890306
0	2181019	55.22827199002	3.227101510297
0	2181066	55.228915683061	3.227745203338
0	2181662	55.241202647138	3.240032167415
0	2218239	56.012484697186	0.011057805806999
0	2218800	56.023206346582	0.021779455203003
0	2219425	56.035187877771	0.033760986392004
0	2220408	56.053882587429	0.052455696050004
0	2220445	56.05436359024	0.052936698861004
0	2235835	56.368284434377	3.367113953654
0	2235883	56.368872608518	3.367702127795
0	2235975	56.370637130941	3.369466650218
0	2236452	56.380379415484	3.379208934761
0	2236542	56.382143937907	3.380973457184
0	2236983	56.391277393789	3.390106913066
0	2238246	56.418065473439	3.416894992716
0	2267063	57.012559444077	0.010876144042001
0	2267620	57.023462755238	0.021779455203003
0	2268203	57.035123546605	0.033440246570002
0	2269142	57.054138996085	0.052455696050004
0	2269157	57.054438337131	0.052755037095999
0	2294859	57.612272742592	3.611102260869
0	2294890	57.612860916733	3.61169043501
0	2294984	57.614625439156	3.613454957433
0	2295958	57.635123545645	3.633953063922
0	2296163	57.639392442835	3.638221961112
0	2296191	57.640036135876	3.638865654153
0	2297076	57.659112910949	3.657942429226
0	2313188	58.012997514498	0.011057805806999
0	2313697	58.023719163894	0.021779455203003
0	2314233	58.035318712838	0.033379004147001
0	2315125	58.054395404741	0.052455696050004
0	2315177	58.055567820848	0.053628112157
0	2342896	58.691572291327	3.690401808604
0	2342922	58.692160465468	3.690989982745
0	2343045	58.694513162032	3.693342679309
0	2343454	58.703667272434	3.702496789711
0	2343574	58.706019968998	3.704849486275
0	2343934	58.714297319903	3.71312683718
0	2345158	58.743117852812	3.741947370089
0	2356769	59.012815852733	0.010876144042001
0	2357302	59.023719163894	0.021779455203003
0	2357836	59.035387281327	0.033447572636
0	2358697	59.054395404741	0.052455696050004
0	2358712	59.054694745787	0.052755037095999
0	2400154	59.968498351438	3.967071460059
0	2400197	59.969086525579	3.9676596342
0	2400302	59.971439222143	3.970012330764
0	2400731	59.980593332545	3.979166441166
0	2400836	59.982946029109	3.98151913773
0	2401208	59.991223380014	3.989796488635
0	2402148	60.012815853733	0.010876144042001
0	2402444	60.019202754718	4.017775863339
0	2402643	60.023760269858	0.021820560167001
0	2403126	60.035240096155	0.033300386463999
0	2403962	60.054656287372	0.052716577680997
0	2403975	60.054694746787	0.052755037095999
0	2446483	61.013118883936	0.010876144042001
0	2446970	61.024022195097	0.021779455202996
0	2447468	61.035283279395	0.033040539500995
0	2448331	61.054698435944	0.052455696049996
0	2448344	61.05499777699	0.052755037095999
0	2453564	61.170726295642	4.169042995607
0	2453593	61.171314469783	4.169631169748
0	2453727	61.173667166347	4.171983866312
0	2454161	61.182821276749	4.181137976714
0	2454275	61.185173973313	4.183490673278
0	2454665	61.193724944524	4.192041644489
0	2456081	61.223448205409	4.221764905374
0	2491632	62.014995904241	0.012450134143997
0	2492041	62.023923170505	0.021377400407999
0	2492082	62.024688037377	0.022142267279996
0	2492150	62.026373304649	0.023827534551998
0	2511472	62.451181400599	4.449241691908
0	2511505	62.45176957474	4.449829866049
0	2511633	62.45453854342	4.452598834729
0	2512032	62.463357988942	4.461418280251
0	2512133	62.46562907827	4.463689369579
0	2512502	62.473906429175	4.471966720484
0	2513525	62.498270398939	4.496330690248
0	2536305	63.015298934444	0.012450134143997
0	2536743	63.024226200708	0.021377400407999
0	2536783	63.02499106758	0.022142267279996
0	2536866	63.026676334852	0.023827534551998
0	2556185	63.435196738492	4.433257029801
0	2556212	63.435784912633	4.433845203942
0	2556304	63.437549435056	4.435609726365
0	2556771	63.447291719599	4.445352010908
0	2556855	63.449056242022	4.447116533331
0	2557287	63.458405440561	4.45646573187
0	2558401	63.483421913992	4.481482205301
0	2581924	64.015298934344	0.012147103841002
0	2582366	64.024838734144	0.021686903640997
0	2582408	64.025603601016	0.022451770513001
0	2582456	64.026676334752	0.023524504248996
0	2599000	64.436269126474	4.434329416783
0	2599023	64.436857300615	4.434917590924
0	2599115	64.438621823038	4.436682113347
0	2599512	64.448364107581	4.44642439789
0	2599595	64.450128630004	4.448188920313
0	2599948	64.45899415505	4.457054445359
0	2600715	64.477664338135	4.475724628444
0	2622334	65.015298934244	0.011844073538001
0	2622725	65.024838734044	0.021383873337996
0	2622760	65.025603600916	0.02214874021
0	2622806	65.026676334652	0.023221473945995
0	2630194	65.209129947748	4.206887207854
0	2630217	65.209718121889	4.207475381995
0	2630310	65.211482644312	4.209239904418
0	2630749	65.221224928855	4.218982188961
0	2630837	65.222989451278	4.220746711384
0	2631257	65.231854976324	4.22961223643
0	2632067	65.250088580482	4.247845840588
0	2658176	65.968603730095	3.966057959998
0	2658205	65.969191904236	3.966646134139
0	2658228	65.969780078377	3.96723430828
0	2658530	65.978136922896	3.975591152799
0	2658857	65.987425302607	3.98487953251
0	2658927	65.989590835742	3.987045065645
0	2659161	65.996958495408	3.994412725311
0	2659220	65.998609621372	3.996063851275
0	2659807	66.015595491517	0.011837600608004
0	2660113	66.025135291317	0.021377400407999
0	2660157	66.025900158189	0.022142267280003
0	2660188	66.026972891925	0.023215001015998
0	2684054	66.723231152998	3.720382352698
0	2684083	66.723819327139	3.720970526839
0	2684105	66.72440750128	3.72155870098
0	2684426	66.732764345799	3.729915545499
0	2684630	66.738523680664	3.735674880364
0	2684850	66.744218258645	3.741369458345
0	2684978	66.748056873465	3.745208073165
0	2685187	66.753777309625	3.750928509325
0	2695587	67.016208024953	0.012147103841002
0	2696040	67.025900158089	0.021839236977002
0	2696066	67.026665024961	0.022604103849005
0	2696108	67.027585425361	0.023524504248996
0	2709073	67.396102370302	3.392950539799
0	2709121	67.397278718584	3.394126888081
0	2709148	67.397866892725	3.394715062222
0	2709430	67.405635563103	3.4024837326
0	2709772	67.414335768673	3.41118393817
0	2709873	67.417089475949	3.413937645446
0	2710140	67.423868961474	3.420717130971
0	2710233	67.426504582285	3.423352751782
0	2730360	68.016820558389	0.012456607074
0	2730719	68.025747824653	0.021383873337996
0	2730752	68.026512691525	0.02214874021
0	2730807	68.028197958797	0.023834007481994
0	2735694	68.169551365717	3.166096505011
0	2735719	68.170139539858	3.166684679152
0	2735742	68.170727713999	3.167272853293
0	2736046	68.179084558518	3.175629697812
0	2736318	68.186608415806	3.1831535551
0	2736468	68.190538471364	3.187083610658
0	2736656	68.196141608607	3.192686747901
0	2736817	68.200450449077	3.196995588371
0	2758929	68.857715110687	2.853957219778
0	2758973	68.858891458969	2.85513356806
0	2758997	68.85947963311	2.855721742201
0	2759266	68.867248303488	2.863490412579
0	2759482	68.873595812494	2.869837921585
0	2759656	68.878702216334	2.874944325425
0	2759777	68.882540831154	2.878782940245
0	2759979	68.888322763957	2.884564873048
0	2764328	69.016820558289	0.012153576770999
0	2764672	69.026360358089	0.021693376570994
0	2764726	69.027890091833	0.023223110315001
0	2764751	69.028654958705	0.023987977187005
0	2785147	69.639986718217	2.635925797105
0	2785192	69.641163066499	2.637102145387
0	2785218	69.64175124064	2.637690319528
0	2785490	69.649519911018	2.645458989906
0	2785845	69.65939646487	2.655335543758
0	2785892	69.660973823864	2.656912902752
0	2786204	69.669528412161	2.665467491049
0	2786279	69.671366012769	2.667305091657
0	2797661	70.016820558189	0.011850546467997
0	2798014	70.026512691325	0.021542679603996
0	2798045	70.027277558197	0.022307546476
0	2798077	70.028197958597	0.023227946876005
0	2809148	70.358735518519	2.354371567204
0	2809173	70.35932369266	2.354959741345
0	2809194	70.359911866801	2.355547915486
0	2809482	70.36826871132	2.363904760005
0	2809702	70.374028046185	2.36966409487
0	2809926	70.3804109786	2.376047027285
0	2810055	70.384149413127	2.379785461812
0	2810234	70.388928824413	2.384564873098
0	2831256	71.017110642532	0.011837600608004
0	2831611	71.026650442332	0.021377400407999
0	2831644	71.027415309204	0.022142267280003
0	2831682	71.02848804294	0.023215001015998
0	2834062	71.093365020628	2.08869803911
0	2834086	71.093953194769	2.089286213251
0	2834110	71.09454136891	2.089874387392
0	2834454	71.103163274197	2.098496292679
0	2834871	71.114352126275	2.109685144757
0	2834881	71.114539289704	2.109872308186
0	2835206	71.123370911905	2.118703930387
0	2835258	71.124656003841	2.119989022323
0	2862829	71.891517329965	1.886547318244
0	2862880	71.892693678247	1.887723666526
0	2862903	71.893281852388	1.888311840667
0	2863219	71.901498109881	1.89652809816
0	2863567	71.910927076618	1.905957064897
0	2863631	71.912504435612	1.907534423891
0	2863918	71.921058011857	1.916088000136
0	2863971	71.922283078929	1.917313067208
0	2867472	72.017632454665	0.012359411741002
0	2867849	72.027172254465	0.021899211540997
0	2867883	72.027937121337	0.022664078413001
0	2867943	72.029466855081	0.024193812156994
0	2889098	72.610854304408	1.605581262484
0	2889153	72.61203065269	1.606757610766
0	2889178	72.612618826831	1.607345784907
0	2889491	72.621058012557	1.615784970633
0	2889848	72.630264051061	1.624991009137
0	2889918	72.631841410055	1.626568368131
0	2890225	72.640385418003	1.635112376079
0	2890268	72.641610485075	1.636337443151
0	2903850	73.017110644532	0.011837600608004
0	2904190	73.026650444332	0.021377400407999
0	2904221	73.027415311204	0.022142267280003
0	2904267	73.02848804494	0.023215001016013
0	2921723	73.521347874676	1.516074831752
0	2921744	73.521936048817	1.516663005893
0	2921763	73.522524222958	1.517251180034
0	2922124	73.53129010515	1.526017062226
0	2922546	73.541933969611	1.536660926687
0	2922568	73.542334980323	1.537061937399
0	2922898	73.551353765953	1.546080723029
0	2922953	73.552578833025	1.547305790101
0	2939756	74.017460021173	0.012186976248998
0	2940164	74.027917021181	0.022643976257001
0	2940197	74.028681888053	0.023408843129005
0	2940235	74.029446754925	0.024173710001008
0	2951058	74.330675492692	1.325402448768
0	2951084	74.331263666833	1.325990622909
0	2951111	74.331851840974	1.32657879705
0	2951432	74.340208685493	1.334935641569
0	2951906	74.351662598339	1.346389554415
0	2951936	74.352437935909	1.347164891985
0	2952284	74.361058014297	1.355784970373
0	2952341	74.362559302851	1.357286258927
0	2976006	75.017110646532	0.011837600608004
0	2976426	75.026650446332	0.021377400407999
0	2976460	75.027415313204	0.022142267280003
0	2976502	75.02848804694	0.023215001015998
0	2983837	75.227641057717	1.222368012793
0	2983881	75.228817405999	1.223544361075
0	2983909	75.22940558014	1.224132535216
0	2984159	75.237174250518	1.231901205594
0	2984571	75.248628163364	1.24335511844
0	2984630	75.249991675075	1.244718630151
0	2984880	75.257646948994	1.25237390407
0	2984958	75.259524867876	1.254251822952
0	3013257	76.018091811065	0.012574862802012
0	3013590	76.027019077329	0.021502129066008
0	3013624	76.027783944201	0.022266995938011
0	3013693	76.029469211473	0.023952263210006
0	3014953	76.063436512078	1.058163466154
0	3014988	76.064024686219	1.058751640295
0	3015014	76.06461286036	1.059339814436
0	3015319	76.072969704879	1.067696658955
0	3015730	76.083434432872	1.078161386948
0	3015778	76.084423617725	1.079150571801
0	3016120	76.092967625673	1.087694579749
0	3016145	76.093580159209	1.088307113285
0	3050561	77.012161401511	1.006644453248
0	3050583	77.012749575652	1.007232627389
0	3050611	77.013337749793	1.00782080153
0	3050786	77.01759845121	0.01183760060799
0	3050958	77.022103631985	1.016586683722
0	3051151	77.02713825101	0.021377400407999
0	3051182	77.027903117882	0.022142267280003
0	3051230	77.028975851618	0.023215001015998
0	3051397	77.033148507158	1.027631558895
0	3051425	77.033923844728	1.028406896465
0	3051720	77.042167292788	1.036650344525
0	3051765	77.043457037529	1.037940089266
0	3085695	77.947358285701	0.941597435099
0	3085723	77.947946459842	0.94218560924
0	3085753	77.948534633983	0.942773783381
0	3086072	77.956891478502	0.9511306279
0	3086538	77.968345391348	0.96258454074599
0	3086549	77.968532554777	0.962771704175
0	3086916	77.977364176978	0.971603326376
0	3086994	77.979181039529	0.97342018892699
0	3088591	78.018454887085	0.012450134144004
0	3088956	78.027382153349	0.021377400407999
0	3088992	78.028147020221	0.022142267280003
0	3089063	78.029832287493	0.023827534551998
0	3122069	78.913140225223	0.90713547228201
0	3122094	78.913728399364	0.90772364642301
0	3122129	78.914316573505	0.90831182056401
0	3122442	78.922673418024	0.91666866508301
0	3122876	78.93412733087	0.928122577929
0	3122977	78.936667190863	0.93066243792201
0	3123185	78.94319377295	0.937189020009
0	3123293	78.946200383664	0.940195630723
0	3125933	79.018086255888	0.01183760060799
0	3126302	79.027626055688	0.021377400407999
0	3126329	79.02839092256	0.022142267279989
0	3126382	79.029463656296	0.023215001015998
0	3157399	79.851866154259	0.845617498979
0	3157426	79.8524543284	0.84620567312
0	3157451	79.853042502541	0.846793847261
0	3157780	79.861988694828	0.855740039548
0	3158177	79.872853259906	0.86660460462599
0	3158281	79.875393119899	0.869144464619
0	3158546	79.882476499704	0.87622784442399
0	3158678	79.886015862508	0.879767207228
0	3164501	80.038734780711	0.032242223091998
0	3164965	80.048693206584	0.042200648965007
0	3164996	80.049411582031	0.042919024412001
0	3165027	80.050129957478	0.043637399858994
0	3165423	80.059166448672	0.052673891053004
0	3165476	80.060307034809	0.053814477190002
0	3165516	80.061098792626	0.054606235007
0	3165540	80.061817168073	0.055324610453994
0	3165584	80.062668021243	0.056175463624001
0	3166357	80.082024686195	0.075532128576
0	3194660	80.844764714712	0.838272157093
0	3195033	80.85555653436	0.84906397674101
0	3201751	81.039347314147	0.032610854189002
0	3202134	81.049131278505	0.04239481854701
0	3202160	81.049849653952	0.043113193994003
0	3202191	81.050568029399	0.043831569441011
0	3202533	81.059778982108	0.053042522150008
0	3202575	81.06074510673	0.054008646772004
0	3202607	81.061536864547	0.054800404589002
0	3202628	81.062255239994	0.05551878003601
0	3202666	81.063106093164	0.056369633206003
0	3203384	81.082217240699	0.075480780741003
0	3227913	81.751141065993	0.744404606035
0	3228324	81.762093016671	0.75535655671301
0	3238574	82.039059346919	0.032322885961008
0	3238982	82.049511995732	0.042775534774009
0	3239002	82.050104142192	0.043367681234002
0	3239031	82.050696288652	0.043959827693996
0	3239351	82.05949101488	0.052754553922
0	3239381	82.060550938148	0.053814477190002
0	3239423	82.061342695965	0.054606235007
0	3239452	82.062061071412	0.055324610454008
0	3239485	82.062911924582	0.056175463624001
0	3240152	82.081925407311	0.075188946353009
0	3259499	82.651103020623	0.644366559665
0	3259883	82.661999452401	0.65526299144301
0	3272404	83.038973130173	0.032236668215006
0	3272743	83.049089468658	0.042353006699997
0	3272771	83.049807844105	0.043071382147005
0	3272806	83.050526219552	0.043789757593999
0	3273090	83.059404798134	0.052668336175998
0	3273137	83.060703296883	0.053966834924992
0	3273163	83.0614950547	0.054758592742004
0	3273194	83.062213430147	0.055476968188998
0	3273230	83.063134216563	0.056397754605001
0	3273834	83.081839190565	0.075102728606993
0	3285443	83.426261019561	0.419524557603
0	3285817	83.437052839209	0.430316377251
0	3306293	84.039276160376	0.032236668215006
0	3306688	84.049240141126	0.042200648964993
0	3306710	84.049958516573	0.042919024412001
0	3306744	84.05067689202	0.043637399858994
0	3307049	84.059707828337	0.052668336175998
0	3307088	84.060853969351	0.053814477190002
0	3307128	84.061853907981	0.054814415820005
0	3307157	84.062704761151	0.055665268989998
0	3307181	84.063130187736	0.056090695574994
0	3307796	84.082142220768	0.075102728606993
0	3311940	84.206179930527	0.199140438366
0	3312289	84.216971750175	0.20993225801399
0	3338215	85.039579190579	0.032236668215006
0	3338556	85.049543171329	0.042200648964993
0	3338587	85.050261546776	0.042919024412001
0	3338633	85.050979922223	0.043637399858994
0	3338913	85.06001085854	0.052668336175998
0	3338923	85.060178137149	0.052835614784996
0	3338980	85.061397372395	0.054054850030994
0	3339004	85.061948757371	0.054606235007
0	3339025	85.062667132818	0.055324610453994
0	3339064	85.063612148055	0.056269625691002
0	3339296	85.071331064789	0.063988542424994
0	3339621	85.082445250971	0.075102728606993
0	3369075	86.039882220782	0.032236668215006
0	3369456	86.049846201532	0.042200648964993
0	3369488	86.050564576979	0.042919024412001
0	3369555	86.051826418549	0.044180865982
0	3369820	86.060313888743	0.052668336175998
0	3369828	86.060481167352	0.052835614784996
0	3369888	86.061941044307	0.054295491740007
0	3369906	86.062251787574	0.054606235007
0	3369950	86.063201982318	0.055556429750993
0	3369987	86.064052835488	0.056407282921001
0	3370229	86.071634094992	0.063988542424994
0	3370593	86.083117514891	0.075471962324002

