version 2
run Net10-0-20190306-15:26:08-19744
attr configname Net10
attr datetime 20190306-15:26:08
attr experiment Net10
attr inifile omnetpp.ini
attr iterationvars ""
attr iterationvarsf ""
attr measurement ""
attr network mogp.networks.Net10
attr processid 19744
attr repetition 0
attr replication #0
attr resultdir results
attr runnumber 0
attr seedset 0
param **.eventStorage.packetLength "1024 byte"
param **.node[*].operator[*].packetLength "1024 byte"

vector 0 Net10.eventStorage "End-to-End Delay" ETV
0	161	5	0
0	162	5	0
0	163	5	0
0	164	5	0
0	165	5	0
0	166	5	0
0	167	5	0
0	168	5	0
0	169	5	0
0	170	5	0
0	171	5	0
0	172	5	0
0	30020	6.031926731005	0.031656461735
0	30041	6.032539264541	0.032268995271
0	30053	6.032778515652	0.032508246382
0	30067	6.033151798077	0.032881528807001
0	30076	6.033366689793	0.033096420523
0	30091	6.033764331613	0.033494062343
0	30115	6.034376865149	0.034106595879
0	30121	6.034543038075	0.034272768805001
0	30137	6.034989398685	0.034719129415
0	30153	6.035601932221	0.035331662951
0	30170	6.036214465757	0.035944196487001
0	30637	6.052880984151	0.052610714881
0	59041	7.032364802026	0.031824263486
0	59072	7.032977335562	0.032436797022
0	59081	7.033216586673	0.032676048132999
0	59100	7.033589869098	0.033049330558
0	59110	7.033804760814	0.033264222274
0	59125	7.034202402634	0.033661864093999
0	59140	7.034530802736	0.033990264195999
0	59154	7.03481493617	0.03427439763
0	59176	7.035427469706	0.034886931166
0	59196	7.036040003242	0.035499464702
0	59230	7.037265070314	0.036724531773999
0	59722	7.05352399221	0.05298345367
0	88146	8.032475643835	0.031664836025
0	88170	8.033088177371	0.032277369560999
0	88175	8.033151252441	0.032340444631
0	88195	8.033700710907	0.032889903097001
0	88200	8.033739426582	0.032928618772001
0	88223	8.034313244443	0.033502436633
0	88232	8.034465468504	0.033654660693999
0	88249	8.034925777979	0.034114970169
0	88276	8.035538311515	0.034727503705
0	88296	8.036150845051	0.035340037240999
0	88320	8.036763378587	0.035952570777001
0	88791	8.053962063231	0.053151255421
0	117723	9.032569737064	0.031488659983999
0	117763	9.033421521711	0.032340444631
0	117780	9.033794804136	0.032713727055999
0	117812	9.034407337672	0.033326260592
0	117826	9.034597869993	0.033516792913
0	117838	9.035019871208	0.033938794128
0	117850	9.035186044134	0.034104967053999
0	117862	9.035632404744	0.034551327663999
0	117888	9.03624493828	0.035163861199999
0	117919	9.036857471816	0.035776394735999
0	117945	9.037470005352	0.036388928272
0	118447	9.053655985942	0.052574908861999
0	145871	10.033007808085	0.031656461735
0	145899	10.033620341621	0.032268995271
0	145920	10.034149316232	0.032797969882001
0	145929	10.034232875157	0.032881528807001
0	145945	10.034737490373	0.033386144023002
0	145950	10.034845408693	0.033494062343001
0	145970	10.035457942229	0.034106595879001
0	145976	10.035611880816	0.034260534466
0	145998	10.036070475765	0.034719129415
0	146026	10.036683009301	0.035331662951
0	146047	10.037295542837	0.035944196487002
0	146589	10.053926255212	0.052574908862001
0	174912	11.033110275604	0.031488659983999
0	174935	11.03372280914	0.032101193520001
0	174956	11.034313115415	0.032691499795
0	174961	11.034335342676	0.032713727056001
0	174987	11.034901289556	0.033279673936001
0	174992	11.034947876212	0.033326260592
0	175014	11.035560409748	0.033938794128
0	175023	11.035714348335	0.034092732715001
0	175040	11.036172943284	0.034551327663999
0	175067	11.03678547682	0.035163861200001
0	175085	11.037398010356	0.035776394736001
0	175569	11.05473610944	0.053114493820001
0	202160	12.033548347525	0.031623701702001
0	202189	12.034160881061	0.032236235238001
0	202209	12.034773414597	0.032848768774
0	202214	12.034975994105	0.033051348282001
0	202232	12.035385948133	0.03346130231
0	202237	12.035564168246	0.033639522423
0	202254	12.035998481669	0.034073835846
0	202259	12.036152342387	0.034227696564001
0	202277	12.036611015205	0.034686369382001
0	202293	12.037223548741	0.035298902918001
0	202316	12.037836082277	0.035911436454001
0	202753	12.054499554685	0.052574908862001
0	227516	13.033959828199	0.032035182376001
0	227531	13.034265090454	0.032340444631
0	227543	13.034572361735	0.032647715912001
0	227553	13.034853264595	0.032928618772001
0	227564	13.035184895271	0.033260249448
0	227573	13.035579306517	0.033654660694001
0	227586	13.035797428807	0.033872782984
0	227611	13.036409962343	0.03448531652
0	227638	13.037022495879	0.035097850056001
0	227656	13.037635029415	0.035710383592001
0	227678	13.038247562951	0.036322917128
0	228115	13.054975994105	0.053051348282001
0	254284	14.033538877828	0.031614232005001
0	254302	14.034151411364	0.032226765541001
0	254324	14.0347639449	0.032839299077001
0	254334	14.034975994105	0.033051348282001
0	254353	14.035376478436	0.033451832613
0	254358	14.035564168246	0.033639522423
0	254375	14.035989011972	0.034064366149
0	254397	14.036601545508	0.034676899685
0	254405	14.036740516528	0.034815870705
0	254418	14.037214079044	0.035289433221001
0	254441	14.03782661258	0.035901966757001
0	254936	14.055418119483	0.05349347366
0	280000	15.033538877828	0.031614232005001
0	280025	15.034151411364	0.032226765541001
0	280051	15.0347639449	0.032839299077001
0	280056	15.034975994105	0.033051348282001
0	280075	15.035376478436	0.033451832613
0	280080	15.035564168246	0.033639522423
0	280101	15.035989011972	0.034064366149
0	280106	15.036152342387	0.034227696564001
0	280119	15.036601545508	0.034676899685
0	280143	15.037214079044	0.035289433221001
0	280168	15.03782661258	0.035901966757001
0	280642	15.054499554685	0.052574908862001
0	305713	16.033413305807	0.031488659983999
0	305736	16.034025839343	0.032101193519999
0	305748	16.034265090454	0.032340444631
0	305760	16.034638372879	0.032713727055999
0	305773	16.034853264595	0.032928618772001
0	305786	16.035250906415	0.033326260592002
0	305796	16.035579306517	0.033654660694001
0	305811	16.035863439951	0.033938794128002
0	305829	16.036475973487	0.034551327664001
0	305863	16.037088507023	0.035163861200001
0	305889	16.037701040559	0.035776394736001
0	306341	16.054764518433	0.052839872610001
0	331808	17.033413305807	0.031488659983999
0	331831	17.034025839343	0.032101193519999
0	331842	17.034265090454	0.032340444631
0	331860	17.034638372879	0.032713727055999
0	331869	17.034853264595	0.032928618772001
0	331885	17.035250906415	0.033326260592002
0	331893	17.035579306517	0.033654660694001
0	331908	17.035863439951	0.033938794128002
0	331931	17.036475973487	0.034551327664001
0	331949	17.037088507023	0.035163861200001
0	331962	17.037701040559	0.035776394736001
0	332462	17.054975994105	0.053051348282001
0	357120	18.033413305807	0.031488659983999
0	357140	18.034025839343	0.032101193519999
0	357155	18.034265090454	0.032340444631
0	357171	18.034638372879	0.032713727055999
0	357180	18.034853264595	0.032928618772001
0	357196	18.035250906415	0.033326260592002
0	357204	18.035579306517	0.033654660694001
0	357216	18.035863439951	0.033938794128002
0	357231	18.036475973487	0.034551327664001
0	357256	18.037088507023	0.035163861200001
0	357275	18.037701040559	0.035776394736001
0	357702	18.054764518433	0.052839872610001
0	383131	19.033603093891	0.031678448068
0	383151	19.034215627427	0.032290981604
0	383180	19.034828160963	0.032903515139999
0	383191	19.034975994105	0.033051348282001
0	383208	19.035440694499	0.033516048675999
0	383213	19.035564168246	0.033639522423002
0	383230	19.036053228035	0.034128582211999
0	383257	19.036665761571	0.034741115748002
0	383262	19.036740516528	0.034815870705
0	383279	19.037278295107	0.035353649284001
0	383299	19.037890828643	0.035966182820001
0	383805	19.055656906344	0.053732260520999
0	408788	20.033538877828	0.031614232005001
0	408812	20.034151411364	0.032226765541001
0	408832	20.0347639449	0.032839299077001
0	408837	20.034975994105	0.033051348282001
0	408854	20.035376478436	0.033451832613
0	408859	20.035564168246	0.033639522423002
0	408880	20.035989011972	0.034064366149
0	408885	20.036152342387	0.034227696563999
0	408904	20.036601545508	0.034676899685
0	408921	20.037214079044	0.035289433220999
0	408939	20.03782661258	0.035901966756999
0	409346	20.054499554685	0.052574908861999
0	433852	21.033538877828	0.031614232005001
0	433870	21.034151411364	0.032226765541001
0	433890	21.0347639449	0.032839299077001
0	433895	21.034975994105	0.033051348282001
0	433913	21.035376478436	0.033451832613
0	433918	21.035564168246	0.033639522423002
0	433934	21.035989011972	0.034064366149
0	433939	21.036152342387	0.034227696563999
0	433955	21.036601545508	0.034676899685
0	433978	21.037214079044	0.035289433220999
0	433997	21.03782661258	0.035901966756999
0	434413	21.054975994105	0.053051348282001
0	460296	22.033538877828	0.031614232005001
0	460322	22.034151411364	0.032226765541001
0	460345	22.0347639449	0.032839299077001
0	460350	22.034975994105	0.033051348282001
0	460368	22.035376478436	0.033451832613
0	460374	22.035564168246	0.033639522423002
0	460391	22.035989011972	0.034064366149
0	460396	22.036152342387	0.034227696563999
0	460408	22.036601545508	0.034676899685
0	460429	22.037214079044	0.035289433220999
0	460453	22.03782661258	0.035901966756999
0	460885	22.054499554685	0.052574908861999
0	485992	23.033462792658	0.031538146835
0	486015	23.034075326194	0.032150680371
0	486026	23.034265090454	0.032340444631
0	486043	23.03468785973	0.032763213907
0	486052	23.034853264595	0.032928618772001
0	486065	23.035300393266	0.033375747442999
0	486073	23.035579306517	0.033654660694001
0	486089	23.035912926802	0.033988280978999
0	486110	23.036525460338	0.034600814514999
0	486132	23.037137993874	0.035213348051002
0	486158	23.03775052741	0.035825881587002
0	486646	23.054975994105	0.053051348282001
0	512392	24.033787759122	0.031863113299
0	512412	24.034400292658	0.032475646835
0	512439	24.034975994105	0.033051348282001
0	512445	24.035012826194	0.033088180370999
0	512468	24.035564168246	0.033639522423002
0	512473	24.03562535973	0.033700713906999
0	512501	24.036237893266	0.034313247442999
0	512518	24.036740516528	0.034815870705
0	512523	24.036850426802	0.034925780979002
0	512542	24.037462960338	0.035538314515001
0	512562	24.038075493874	0.036150848051001
0	513118	24.057258298389	0.055333652565999
0	537086	25.023224646691	0.021300000867999
0	537406	25.033548780502	0.031624134678999
0	537435	25.034418036229	0.032493390406
0	537456	25.034728700747	0.032804054924
0	537497	25.035905049029	0.033980403206002
0	537527	25.03654874207	0.034624096247001
0	537774	25.045842894351	0.043918248528001
0	537801	25.046645859678	0.044721213854999
0	537834	25.047448825005	0.045524179181999
0	538000	25.054349452565	0.052424806742
0	538310	25.065348906078	0.063424260255001
0	538349	25.066663122141	0.064738476317999
0	562929	26.023527676894	0.021300000867999
0	563283	26.03377635632	0.031548680294001
0	563288	26.033851810705	0.031624134678999
0	563315	26.034504930361	0.032277254335
0	563369	26.035681278643	0.033453602617001
0	563400	26.036324971684	0.034097295658
0	563698	26.045819315058	0.043591639032002
0	563726	26.046622280385	0.044394604358999
0	563759	26.047425245712	0.045197569686
0	563975	26.054652482768	0.052424806742
0	564314	26.06583109279	0.063603416764
0	564340	26.066370311728	0.064142635702002
0	590468	27.024024712335	0.021494006106
0	590791	27.034154840908	0.031624134678999
0	590824	27.034807960564	0.032277254335
0	590830	27.03485610805	0.032325401821002
0	590874	27.035984308846	0.033453602617001
0	590902	27.036628001887	0.034097295658
0	591190	27.046122345261	0.043591639032002
0	591211	27.046925310588	0.044394604358999
0	591239	27.047728275915	0.045197569686
0	591440	27.054955512971	0.052424806742
0	591757	27.066269164711	0.063738458482
0	591792	27.067583380774	0.065052674545001
0	616302	28.024521747776	0.021688011344001
0	616673	28.034634596105	0.031800859673002
0	616678	28.03465028621	0.031816549778
0	616710	28.035363170146	0.032529433714
0	616773	28.036539518428	0.033705781996002
0	616797	28.037183211469	0.034349475037001
0	617099	28.046324079811	0.043490343379002
0	617133	28.047127045138	0.044293308705999
0	617164	28.047930010465	0.045096274033
0	617374	28.055258543174	0.052424806742
0	617698	28.066647952495	0.063814216063001
0	617720	28.067086024516	0.064252288083999
0	648536	29.0241337373	0.021300000867999
0	648928	29.034457871111	0.031624134678999
0	648937	29.034647952495	0.031814216063001
0	648960	29.035251639638	0.032417903205999
0	649021	29.03642798792	0.033594251488001
0	649043	29.037071680961	0.034237944529
0	649362	29.046566024335	0.043732287903001
0	649401	29.047368989662	0.044535253230002
0	649431	29.048171954989	0.045338218556999
0	649676	29.055948903279	0.053115166847
0	650041	29.067524096537	0.064690360105001
0	650084	29.068400240579	0.065566504147
0	679776	30.024627808382	0.021794071950001
0	680134	30.034382416726	0.031548680294001
0	680139	30.034457871111	0.031624134678999
0	680163	30.035110990767	0.032277254335
0	680224	30.036287339049	0.033453602617001
0	680254	30.03693103209	0.034097295658
0	680554	30.046324079811	0.043490343379002
0	680581	30.047127045138	0.044293308705999
0	680612	30.047930010465	0.045096274033
0	680839	30.055400240579	0.052566504147002
0	681182	30.067400240579	0.064566504146999
0	681194	30.0678383126	0.065004576168
0	712062	31.024627808382	0.021794071950001
0	712403	31.034382416726	0.031548680294001
0	712408	31.034457871111	0.031624134678999
0	712440	31.035110990767	0.032277254335
0	712507	31.036287339049	0.033453602617001
0	712534	31.03693103209	0.034097295658
0	712844	31.046324079811	0.043490343379002
0	712876	31.047127045138	0.044293308705999
0	712912	31.047930010465	0.045096274033
0	713128	31.055258543174	0.052424806742
0	713502	31.066647952495	0.063814216063001
0	713519	31.067086024516	0.064252288083999
0	743495	32.0241337373	0.021300000867996
0	743863	32.034457871111	0.031624134678999
0	743869	32.034720590867	0.031886854434994
0	743899	32.035449164908	0.032615428475999
0	743964	32.03662551319	0.033791776757994
0	743986	32.037269206231	0.034435469799
0	744259	32.046324079811	0.043490343378998
0	744296	32.047127045138	0.044293308705996
0	744319	32.047930010465	0.045096274033
0	744519	32.055331502054	0.052497765622
0	744877	32.066915988377	0.064082251944996
0	744903	32.067792132419	0.064958395986999
0	773511	33.02440400657	0.021300000868003
0	773860	33.034728140381	0.031624134678999
0	773868	33.034790960534	0.031686954831997
0	773886	33.035381260037	0.032277254335
0	773933	33.036557608319	0.033453602617001
0	773967	33.03720130136	0.034097295658
0	774287	33.046695644734	0.043591639032002
0	774336	33.047874015061	0.044770009358999
0	774376	33.048868086143	0.045764080441003
0	774600	33.056367821199	0.053263815496997
0	774935	33.067763933474	0.064659927771999
0	774967	33.068640077516	0.065536071814002
0	808551	34.02467427584	0.021300000868003
0	809000	34.034922955266	0.031548680294001
0	809015	34.034998409651	0.031624134679006
0	809047	34.035651529307	0.032277254335
0	809148	34.03741605173	0.034041776758002
0	809180	34.038059744771	0.034685469799001
0	809548	34.046965914004	0.043591639032002
0	809587	34.047768879331	0.044394604359006
0	809626	34.048571844658	0.045197569686003
0	809937	34.056134685216	0.052760410244005
0	810370	34.067288725166	0.063914450194005
0	810391	34.067852514176	0.064478239204
0	847880	35.02494454511	0.021300000867996
0	848355	35.035268678921	0.031624134678999
0	848380	35.035511128407	0.031866584165002
0	848412	35.036239702448	0.032595158206
0	848484	35.03741605073	0.033771506488002
0	848519	35.038059743771	0.034415199529001
0	848930	35.047433355836	0.043788811593998
0	848962	35.048236321163	0.044591776920996
0	848993	35.04903928649	0.045394742248
0	849309	35.056477913366	0.052833369124002
0	849778	35.067763931474	0.064119387231997
0	849802	35.068202003495	0.064557459253002
0	886629	36.02521481438	0.021300000868003
0	887082	36.035538948191	0.031624134678999
0	887101	36.035781397677	0.031866584165002
0	887135	36.036509971718	0.032595158206
0	887207	36.03768632	0.033771506488002
0	887240	36.038330013041	0.034415199529001
0	887605	36.047405156891	0.043490343379005
0	887642	36.048208122218	0.044293308706003
0	887679	36.049011087545	0.045096274033
0	888002	36.05707113488	0.053156321368
0	888405	36.067339073767	0.063424260255005
0	888450	36.068475168134	0.064560354622003
0	925504	37.02521481538	0.021300000867996
0	926003	37.035538949191	0.031624134678999
0	926033	37.036281662175	0.032366847662999
0	926070	37.036785635888	0.032870821376001
0	926136	37.037677708884	0.033762894371996
0	926172	37.038321401925	0.034406587412995
0	926563	37.047666742374	0.043751927861997
0	926604	37.048469707701	0.044554893189002
0	926638	37.049272673028	0.045357858515999
0	926955	37.057339481998	0.053424667485999
0	927357	37.06760065925	0.063685844737996
0	927419	37.069352947334	0.065438132821996
0	965269	38.02521481638	0.021300000868003
0	965759	38.035538950191	0.031624134678999
0	965775	38.035788512052	0.031873696540003
0	965817	38.036517086093	0.032602270581002
0	965892	38.037693434375	0.033778618863003
0	965920	38.038337127416	0.034422311904002
0	966310	38.047596729097	0.043681913585004
0	966360	38.048399694424	0.044484878912002
0	966401	38.049202659751	0.045287844238999
0	966752	38.057595879258	0.053681063746005
0	967169	38.067339075767	0.063424260255005
0	967222	38.068475170134	0.064560354622003
0	1003877	39.02521481738	0.021300000867996
0	1004389	39.035888326832	0.03197351032
0	1004402	39.036105176637	0.032190360125
0	1004417	39.036345539844	0.032430723331998
0	1004485	39.03743027748	0.033515460967998
0	1004518	39.038073970521	0.034159154008996
0	1004934	39.047405159891	0.043490343378998
0	1004969	39.048208125218	0.044293308705996
0	1005016	39.049011090545	0.045096274033
0	1005332	39.056896223754	0.052981407242001
0	1005814	39.068035525701	0.064120709188998
0	1005833	39.068473597722	0.064558781209996
0	1043696	40.02521481838	0.021300000868003
0	1044179	40.035538952191	0.031624134678999
0	1044218	40.036253930198	0.032339112686003
0	1044225	40.036349080054	0.032434262542004
0	1044300	40.03743027848	0.033515460968005
0	1044333	40.038073971521	0.034159154009004
0	1044751	40.047568314895	0.043653497383005
0	1044789	40.048371280222	0.044456462710002
0	1044837	40.049174245549	0.045259428036999
0	1045165	40.057027281701	0.053112464188999
0	1045694	40.068688638727	0.064773821214999
0	1045712	40.069126710748	0.065211893236004
0	1085242	41.025458720719	0.021300000868003
0	1085731	41.03578285453	0.031624134678999
0	1085736	41.035807769408	0.031649049557004
0	1085779	41.036536343449	0.032377623598002
0	1085853	41.037712691731	0.033553971880004
0	1085892	41.038356384772	0.034197664921003
0	1086327	41.047843232812	0.043684512961001
0	1086370	41.048646198139	0.044487478287998
0	1086408	41.049449163466	0.045290443615002
0	1086745	41.05727118404	0.053112464188999
0	1087185	41.067777149688	0.063618429837
0	1087232	41.06865329373	0.064494573879003
0	1127587	42.025702623058	0.021300000868003
0	1128086	42.036026756869	0.031624134678999
0	1128099	42.036254375986	0.031851753795998
0	1128136	42.036679876525	0.032277254335
0	1128214	42.037856224807	0.033453602617001
0	1128240	42.038499917848	0.034097295658
0	1128673	42.04793793658	0.043535314389999
0	1128717	42.048740901907	0.044338279716996
0	1128760	42.049543867234	0.045141245044
0	1129093	42.057618324904	0.053215702713999
0	1129523	42.067871853456	0.063469231265998
0	1129569	42.068747997498	0.064345375308001
0	1168833	43.026199658499	0.021553133969995
0	1169318	43.036254375886	0.031607851356995
0	1169323	43.036270659208	0.031624134678999
0	1169365	43.036923778864	0.032277254335
0	1169457	43.038688301287	0.034041776757995
0	1169488	43.039331994328	0.034685469799001
0	1169888	43.048136867908	0.043490343378998
0	1169922	43.048939833235	0.044293308705996
0	1169956	43.049742798562	0.045096274033
0	1170307	43.05727118384	0.052624659311
0	1170832	43.068449497834	0.063802973305002
0	1170895	43.069763713897	0.065117189367996
0	1210979	44.026190427736	0.021300000867996
0	1211461	44.036539476425	0.031649049556997
0	1211479	44.036883192644	0.031992765775996
0	1211508	44.037340405656	0.032449978787994
0	1211580	44.038444398748	0.033553971879996
0	1211650	44.03973178483	0.034841357961994
0	1212047	44.048582435163	0.043692008294997
0	1212106	44.04938540049	0.044494973621994
0	1212146	44.050188365817	0.045297938948998
0	1212481	44.058449497735	0.053559070866996
0	1212936	44.06942510749	0.064534680621996
0	1212970	44.069863179511	0.064972752642994
0	1252553	45.026434330075	0.021300000868003
0	1252972	45.036758463886	0.031624134679006
0	1252977	45.036783378764	0.031649049557004
0	1253013	45.037511952805	0.032377623598002
0	1253082	45.038688301087	0.033553971880004
0	1253109	45.039331994128	0.034197664921003
0	1253491	45.049358507521	0.044224178314003
0	1253522	45.050161472848	0.045027143641001
0	1253549	45.050964438175	0.045830108968005
0	1253819	45.058131685366	0.052997356159004
0	1254205	45.069040776274	0.063906447067005
0	1254224	45.069478848295	0.064344519088003
0	1287369	46.026737360278	0.021300000868003
0	1287770	46.036986039704	0.031548680294001
0	1287778	46.037061494089	0.031624134679006
0	1287813	46.037714613745	0.032277254335007
0	1287876	46.038890962027	0.033453602617001
0	1287905	46.039534655068	0.034097295658
0	1288235	46.049358507421	0.043921148011002
0	1288271	46.050161472748	0.044724113338006
0	1288304	46.050964438075	0.045527078665003
0	1288567	46.058704799005	0.053267439595004
0	1288946	46.069175817892	0.063738458482007
0	1288992	46.070051961934	0.064614602524003
0	1321497	47.027540325505	0.021799935891998
0	1321882	47.037289069907	0.031548680293994
0	1321887	47.037364524292	0.031624134678999
0	1321917	47.038017643948	0.032277254335
0	1321997	47.039782166371	0.034041776757995
0	1322026	47.040425859412	0.034685469798994
0	1322311	47.049230732992	0.043490343378998
0	1322345	47.050033698319	0.044293308705996
0	1322372	47.050836663646	0.045096274033
0	1322591	47.058180274349	0.052439884735996
0	1322941	47.069164649868	0.063424260254997
0	1322979	47.070252897286	0.064512507672994
0	1355196	48.027343420684	0.021300000867996
0	1355601	48.037977057728	0.031933637911997
0	1355611	48.038002797159	0.031959377343
0	1355636	48.03843427074	0.032390850923996
0	1355695	48.039497022433	0.033453602616994
0	1355720	48.040140715474	0.034097295657993
0	1356037	48.049533763195	0.043490343378998
0	1356072	48.050336728522	0.044293308705996
0	1356094	48.051139693849	0.045096274033
0	1356338	48.058763449815	0.052720029998994
0	1356692	48.069938281014	0.063894861197994
0	1356726	48.070814425056	0.064771005239997
0	1387716	49.027666000829	0.021300000868003
0	1388187	49.037914680255	0.031548680294001
0	1388199	49.03799013464	0.031624134678999
0	1388233	49.038643254296	0.032277254335
0	1388309	49.039819602578	0.033453602617001
0	1388337	49.040463295619	0.034097295658
0	1388770	49.049957638993	0.043591639032002
0	1388806	49.05076060432	0.044394604358999
0	1388845	49.051563569647	0.045197569686003
0	1389160	49.058906298079	0.052540298118004
0	1389635	49.070607642034	0.064241642073
0	1389671	49.071483786076	0.065117786115003
0	1427512	50.027922409485	0.021300000868003
0	1428003	50.038246543296	0.031624134678999
0	1428028	50.03881276869	0.032190360073002
0	1428033	50.038899662952	0.032277254335
0	1428145	50.040719704275	0.034097295658
0	1428187	50.041363397316	0.034740988698999
0	1428555	50.050214047649	0.043591639032002
0	1428642	50.051819978303	0.045197569686003
0	1428683	50.05262294363	0.046000535013
0	1428986	50.059806244899	0.053183836282003
0	1429446	50.070896215473	0.064273806856001
0	1429484	50.071772359515	0.065149950898004
0	1467895	51.028178818141	0.021300000868003
0	1468376	51.038502951952	0.031624134678999
0	1468423	51.039250839111	0.032372021838
0	1468435	51.0395726985	0.032693881227004
0	1468501	51.040664183775	0.033785366502002
0	1468540	51.041307876816	0.034429059543001
0	1468983	51.05128947574	0.044410658467001
0	1469015	51.052092441067	0.045213623793998
0	1469065	51.052895406394	0.046016589121002
0	1469346	51.059913156573	0.053034339299998
0	1469805	51.070591652567	0.063712835293998
0	1469847	51.071467796609	0.064588979336001
0	1508039	52.028435226797	0.021300000868003
0	1508535	52.039115483888	0.031980257958999
0	1508540	52.039143924237	0.032008698307997
0	1508566	52.0395726969	0.032437470971004
0	1508629	52.040664182175	0.033528956246002
0	1508660	52.041307875216	0.034172649287001
0	1509042	52.05080221859	0.043666992661002
0	1509086	52.051605183917	0.044469957987999
0	1509119	52.052408149244	0.045272923315004
0	1509457	52.060861535484	0.053726309555003
0	1509872	52.071344703219	0.064209477289999
0	1509909	52.072220847261	0.065085621332003
0	1548535	53.028691635453	0.021300000868003
0	1549001	53.039115482288	0.031723847702999
0	1549037	53.039786931708	0.032395297123003
0	1549055	53.040076006434	0.032684371849001
0	1549134	53.041252354716	0.033860720131003
0	1549183	53.042175684976	0.034784050391004
0	1549544	53.050881977964	0.043490343378998
0	1549585	53.051684943291	0.044293308706003
0	1549620	53.052487908618	0.045096274033
0	1549913	53.06033929981	0.052947665224998
0	1550345	53.070970481277	0.063578846692003
0	1550410	53.072722769361	0.065331134776002
0	1586480	54.028961904723	0.021300000867996
0	1586951	54.039286038534	0.031624134678999
0	1586960	54.039619128957	0.031957225101998
0	1586979	54.03993915819	0.032277254335
0	1587085	54.041759199513	0.034097295658
0	1587118	54.042402892554	0.034740988698999
0	1587480	54.051253542887	0.043591639031995
0	1587522	54.052056508214	0.044394604358999
0	1587556	54.052859473541	0.045197569685996
0	1587859	54.060765543249	0.053103639393996
0	1588286	54.072051561357	0.064389657501998
0	1588318	54.072927705399	0.065265801543994
0	1625251	55.02976486905	0.021832695924999
0	1625708	55.039556307804	0.031624134678999
0	1625749	55.040149577529	0.032217404404001
0	1625754	55.04020942746	0.032277254335
0	1625854	55.041973949883	0.034041776758002
0	1625889	55.042617642924	0.034685469799001
0	1626299	55.051523812157	0.043591639032002
0	1626337	55.052326777484	0.044394604358999
0	1626379	55.053129742811	0.045197569686003
0	1626688	55.060356979867	0.052424806742003
0	1627166	55.07135643338	0.063424260254997
0	1627207	55.072232577422	0.064300404297001
0	1668961	56.029496653394	0.021564478268999
0	1669465	56.039556309804	0.031624134678999
0	1669508	56.04020942946	0.032277254335
0	1669549	56.040766121172	0.032833946046999
0	1669613	56.041973951883	0.034041776758002
0	1669643	56.042617644924	0.034685469799001
0	1670099	56.05212816462	0.044195989495002
0	1670136	56.052931129947	0.044998954821999
0	1670172	56.053734095274	0.045801920149003
0	1670453	56.060356981867	0.052424806741996
0	1670936	56.07135643538	0.063424260254997
0	1670976	56.072232579422	0.064300404297001
0	1713427	57.029232177993	0.021300000868003
0	1713876	57.039556311804	0.031624134678999
0	1713952	57.040913584347	0.032981407221996
0	1713962	57.04120745193	0.033275274805
0	1714023	57.042383800212	0.034451623087001
0	1714055	57.043027493253	0.035095316128
0	1714399	57.051600990126	0.043668813000998
0	1714445	57.052477134168	0.044544957043001
0	1714479	57.053280099495	0.045347922369999
0	1714794	57.06112166316	0.053189486035002
0	1715236	57.071703058062	0.063770880937
0	1715280	57.072579202104	0.064647024979003
0	1752334	58.029466056639	0.021533878514006
0	1752809	58.039556312804	0.031624134678999
0	1752845	58.04012253825	0.032190360125
0	1752850	58.04020943246	0.032277254335
0	1752953	58.041973954883	0.034041776758002
0	1752980	58.042617647924	0.034685469799001
0	1753358	58.051877249605	0.043945071480003
0	1753392	58.052680214932	0.044748036807
0	1753443	58.053483180259	0.045551002134005
0	1753756	58.061438327745	0.053506149620006
0	1754151	58.07135643838	0.063424260255005
0	1754207	58.072755690642	0.064823512517002

