version 2
run Net10-0-20190306-11:55:37-2480
attr configname Net10
attr datetime 20190306-11:55:37
attr experiment Net10
attr inifile omnetpp.ini
attr iterationvars ""
attr iterationvarsf ""
attr measurement ""
attr network mogp.networks.Net10
attr processid 2480
attr repetition 0
attr replication #0
attr resultdir results
attr runnumber 0
attr seedset 0
param **.eventStorage.packetLength "1024 byte"
param **.node[*].operator[*].packetLength "1024 byte"

vector 0 Net10.eventStorage "End-to-End Delay" ETV
0	162	5	0
0	163	5	0
0	164	5	0
0	165	5	0
0	166	5	0
0	167	5	0
0	168	5	0
0	169	5	0
0	170	5	0
0	171	5	0
0	172	5	0
0	173	5	0
0	13385	6.013896000613	0.013062667680001
0	13511	6.022065200115	0.021231867182
0	13708	6.032696446232	0.031863113299001
0	13719	6.033024619107	0.032191286174
0	13732	6.033308979768	0.032475646835
0	13744	6.033668312148	0.032834979215
0	13773	6.034255034784	0.033421701851
0	13779	6.03453404684	0.033700713907001
0	14092	6.054272607323	0.053439274390001
0	14103	6.054916300364	0.054082967431
0	14121	6.055434717718	0.054601384785
0	14245	6.064005549605	0.063172216672
0	26850	7.014729333546	0.01306266768
0	27143	7.022898533048	0.021231867182
0	27582	7.03385795204	0.032191286174
0	27606	7.034123912148	0.032457246282
0	27634	7.034736445684	0.033069779818
0	27660	7.035088367717	0.033421701851
0	27667	7.035145338122	0.033478672256
0	27679	7.03534897922	0.033682313354
0	28474	7.055105940256	0.05343927439
0	28510	7.055749633297	0.054082967431
0	28534	7.056320003893	0.054653338027
0	28874	7.064838882538	0.063172216672
0	65423	8.014843290306	0.013176623640001
0	65721	8.022986671333	0.021320004667
0	66180	8.033782045068	0.032115378402001
0	66207	8.034394578604	0.032727911938
0	66219	8.034653338009	0.032986671343
0	66260	8.035202324477	0.033535657811001
0	66278	8.035619645676	0.033952979010001
0	66305	8.035940724091	0.034274057425002
0	67077	8.055194078541	0.053527411875001
0	67109	8.055837771582	0.054171104916001
0	67129	8.056382007411	0.054715340745
0	67433	8.064838883338	0.063172216672001
0	103965	9.014900269086	0.013233601620001
0	104260	9.022986672133	0.021320004667
0	104723	9.034077211403	0.032410543937001
0	104742	9.034361410952	0.032694743486001
0	104773	9.034973944488	0.033307277022001
0	104788	9.035259303257	0.033592635791001
0	104796	9.035364597485	0.033697930019001
0	104807	9.035586478024	0.033919810558
0	105587	9.055274833254	0.053608165788001
0	105614	9.055837772382	0.054171104916001
0	105641	9.056438986191	0.054772318725
0	105969	9.064838884138	0.063172216672001
0	141919	10.033126437414	0.031459768948
0	141962	10.033714611555	0.032047943089001
0	142000	10.034302785696	0.03263611723
0	142021	10.034720568618	0.033053900152
0	142031	10.034890959837	0.033224291371001
0	142092	10.036157319512	0.034490651046001
0	142128	10.036875694959	0.035209026493
0	142398	10.043692350547	0.042025682081
0	142440	10.044410725994	0.042744057528001
0	142843	10.054160037758	0.052493369292
0	143289	10.064898687979	0.063232019513
0	143791	10.07749414775	0.075827479284001
0	181471	11.033143183983	0.031476514517001
0	181508	11.033731358124	0.032064688658
0	181543	11.034319532265	0.032652862799001
0	181560	11.034720569618	0.033053900152
0	181572	11.034907706406	0.03324103694
0	181618	11.036157320512	0.034490651046001
0	181644	11.036875695959	0.035209026493
0	181902	11.043692351547	0.042025682081
0	181947	11.044410726994	0.042744057528001
0	182322	11.054242248686	0.052575579220001
0	182752	11.064898688979	0.063232019513
0	183257	11.07749414875	0.075827479284001
0	218750	12.033126439414	0.031459768948
0	218796	12.033714613555	0.032047943089001
0	218826	12.034302787696	0.03263611723
0	218846	12.034720570618	0.033053900152
0	218855	12.034890961837	0.033224291371001
0	218908	12.036157321512	0.034490651046001
0	218938	12.036875696959	0.035209026493
0	219209	12.043692352547	0.042025682081
0	219249	12.044410727994	0.042744057528001
0	219631	12.054201144722	0.052534474256001
0	220039	12.064898689979	0.063232019513
0	220516	12.07749414975	0.075827479284001
0	258547	13.033126440414	0.031459768948
0	258596	13.033714614555	0.032047943089001
0	258666	13.034890962837	0.033224291371001
0	258682	13.035153232779	0.033486561313
0	258696	13.035479136978	0.033812465512
0	258757	13.036589983673	0.034923312207001
0	258794	13.03730835912	0.035641687654
0	259111	13.044398924836	0.04273225337
0	259135	13.044843390155	0.043176718689001
0	259529	13.054201145722	0.052534474255999
0	259993	13.065572980034	0.063906308568001
0	260523	13.078287910501	0.076621239035001
0	296804	14.033126441414	0.031459768948
0	296844	14.033714615555	0.032047943089001
0	296896	14.034890963837	0.033224291371001
0	296913	14.035153233779	0.033486561313
0	296931	14.035479137978	0.033812465512
0	296981	14.036589984673	0.034923312207001
0	297011	14.03730836012	0.035641687654
0	297274	14.044125015708	0.042458343242
0	297314	14.044843391155	0.043176718689001
0	297673	14.054527965972	0.052861293506
0	298076	14.06515439461	0.063487722144
0	298578	14.078287911501	0.076621239035001
0	335463	15.023044073874	0.021377400407999
0	335472	15.023128574484	0.021461901018
0	335525	15.023808940746	0.02214226728
0	335566	15.024573807618	0.022907134152
0	335994	15.034165868947	0.032499195481
0	336465	15.045304073325	0.043637399859
0	336502	15.046022448772	0.044355775306
0	336534	15.046740824219	0.045074150753001
0	336925	15.056366518087	0.054699844621
0	337000	15.058224066538	0.056557393072
0	337292	15.064981711608	0.063315038142001
0	337328	15.06573525583	0.064068582363999
0	374684	16.023044074874	0.021377400407999
0	374693	16.023128575484	0.021461901017997
0	374731	16.023808941746	0.02214226728
0	374780	16.024881675482	0.023215001015998
0	375143	16.033544204668	0.031877530201999
0	375637	16.045304074325	0.043637399858998
0	375687	16.046488367245	0.044821692778999
0	375720	16.047080513705	0.045413839239
0	376034	16.054988130298	0.053321455831998
0	376174	16.058531163996	0.05686448953
0	376413	16.064981712608	0.063315038141997
0	376445	16.06573525683	0.064068582363998
0	413228	17.023101053654	0.021434378388001
0	413233	17.023136512792	0.021469837526002
0	413279	17.023865920526	0.022199245260001
0	413330	17.024938654262	0.023271978996
0	413706	17.033609442638	0.031942767372001
0	414202	17.045304075125	0.043637399859001
0	414234	17.046022450572	0.044355775306002
0	414258	17.046740826019	0.045074150753003
0	414595	17.055053368268	0.053386693002
0	414717	17.058224068338	0.056557393072001
0	414974	17.065057681132	0.063391005866002
0	415003	17.065811225354	0.064144550088002
0	451494	18.023347105877	0.021377400407999
0	451505	18.023608295708	0.021638590238997
0	451545	18.024111972749	0.02214226728
0	451595	18.025184706485	0.023215001015998
0	452019	18.034473829454	0.032504123984999
0	452490	18.045607105328	0.043637399858998
0	452519	18.046325480775	0.044355775305998
0	452567	18.047509773695	0.045540068226
0	452893	18.055291161301	0.053321455831998
0	453037	18.058866787027	0.056897081557999
0	453287	18.065284743611	0.063315038141997
0	453325	18.066038287833	0.064068582363998
0	493885	19.023220285232	0.021250579762999
0	493914	19.023572172949	0.021602467479998
0	493963	19.024337039821	0.022367334351998
0	494010	19.025101906693	0.023132201223998
0	494424	19.034185409812	0.032215704342999
0	494959	19.045825480775	0.043855775306
0	494984	19.046543856222	0.044574150752997
0	495026	19.047262231669	0.045292526199997
0	495388	19.055806099193	0.053836393723998
0	495513	19.058745473988	0.056775768519
0	495805	19.065503119058	0.063533413588999
0	495833	19.06625666328	0.064286957810999
0	538400	20.015644906685	0.013675201216
0	538738	20.023201572651	0.021231867181999
0	539315	20.035095265692	0.033125560222999
0	539323	20.035245979837	0.033276274367999
0	539328	20.03539140732	0.033421701850997
0	539356	20.035738958733	0.033769253263998
0	539365	20.035858513373	0.033888807903999
0	539397	20.036471046909	0.034501341439999
0	540246	20.055408979859	0.053439274389998
0	540279	20.0560526729	0.054082967430997
0	540307	20.056660991643	0.054691286173998
0	540687	20.065347405179	0.063377699709999
0	580503	21.015032373149	0.01306266768
0	580855	21.023201572651	0.021231867181999
0	581346	21.033832818768	0.031863113299
0	581362	21.034160991643	0.032191286173997
0	581391	21.034445352304	0.032475646835
0	581406	21.034804684684	0.032834979215
0	581444	21.03539140732	0.033421701850997
0	581471	21.035670419376	0.033700713906999
0	582267	21.055408979859	0.053439274389998
0	582304	21.0560526729	0.054082967430997
0	582326	21.056571090254	0.054601384784998
0	583168	21.076446506177	0.074476800707998
0	619827	22.015032373149	0.01306266768
0	620182	22.023201572651	0.021231867181999
0	620664	22.033832818768	0.031863113299
0	620686	22.034160991643	0.032191286173997
0	620711	22.034445352304	0.032475646835
0	620729	22.034804684684	0.032834979215
0	620767	22.03539140732	0.033421701850997
0	620784	22.035670419376	0.033700713906999
0	621609	22.055408979859	0.053439274389998
0	621652	22.0560526729	0.054082967430997
0	621676	22.056571090254	0.054601384784998
0	627730	22.203907583303	0.201937877834
0	661090	23.015644906685	0.013675201216003
0	661405	23.023201572651	0.021231867182003
0	661923	23.034160991643	0.032191286174001
0	661928	23.034194772541	0.032225067072002
0	661966	23.034804684684	0.032834979215
0	661971	23.034807306077	0.032837600608001
0	662016	23.03539140732	0.033421701851001
0	662022	23.035419839613	0.033450134144001
0	662904	23.055408979859	0.053439274390001
0	662933	23.0560526729	0.054082967431
0	662954	23.056571090254	0.054601384785002
0	672830	23.301973640983	0.300003935514
0	699198	24.015032373149	0.013062667680003
0	699494	24.023216095074	0.021246389605
0	699907	24.033832818768	0.031863113299003
0	699922	24.034160991643	0.032191286174001
0	699958	24.034804684684	0.032834979215
0	699976	24.03505788584	0.033088180371003
0	700006	24.03539140732	0.033421701851001
0	700034	24.035670419376	0.033700713907002
0	700742	24.055423502282	0.053453796813002
0	700762	24.056067195323	0.054097489854001
0	700783	24.056571090254	0.054601384785002
0	716103	24.517464897307	0.515495191838
0	732633	25.015365705482	0.01306266768
0	732936	25.023534904984	0.021231867181999
0	733387	25.034494323976	0.032191286173997
0	733392	25.034528104853	0.032225067050998
0	733425	25.035138017017	0.032834979215
0	733430	25.035140638389	0.032837600586998
0	733464	25.035724739653	0.033421701850997
0	733469	25.035753171925	0.033450134122997
0	734181	25.055742312192	0.053439274389998
0	734205	25.056386005233	0.054082967430997
0	734232	25.056904422587	0.054601384784998
0	743635	25.333539405099	0.331236367297
0	765716	26.015699037815	0.01306266768
0	765937	26.023868237317	0.021231867181999
0	766300	26.034499483434	0.031863113299
0	766313	26.034827656309	0.032191286173997
0	766332	26.03511201697	0.032475646835
0	766346	26.03547134935	0.032834979215
0	766358	26.035724550506	0.033088180370999
0	766383	26.036058071986	0.033421701850997
0	766942	26.056075644525	0.053439274389998
0	766962	26.056719337566	0.054082967431
0	766976	26.05723775492	0.054601384784998
0	769932	26.163981421831	0.161345051696
0	797242	27.016032370148	0.01306266768
0	797527	27.02420156965	0.021231867181999
0	797942	27.034959636412	0.031989933944001
0	797962	27.03532469085	0.032354988382
0	797977	27.035572169948	0.03260246748
0	798003	27.035968383891	0.032998681422999
0	798018	27.036184703484	0.033215001016
0	798035	27.036391404319	0.033421701850997
0	798715	27.056408976858	0.053439274389998
0	798755	27.05724333601	0.054273633542
0	798773	27.057571087253	0.054601384784998
0	802047	27.156776289585	0.153806587117
0	830207	28.016978236017	0.013675201216
0	830462	28.024534901983	0.021231867181999
0	830874	28.0351661481	0.031863113299
0	830889	28.035494320975	0.032191286174001
0	830908	28.035778681636	0.032475646835
0	830919	28.036138014016	0.032834979215
0	830937	28.036391215172	0.033088180370999
0	830993	28.037130938581	0.033827903780001
0	831671	28.056742309191	0.053439274389998
0	831700	28.057386002232	0.054082967431
0	831720	28.057904419586	0.054601384784998
0	832072	28.067733795377	0.064430760575998
0	860240	29.016699034814	0.01306266768
0	860595	29.025640977485	0.022004610351001
0	860978	29.035499480433	0.031863113299
0	861005	29.035827653308	0.032191286174001
0	861018	29.036112013969	0.032475646835
0	861032	29.036471346349	0.032834979215
0	861045	29.036724547505	0.033088180370999
0	861073	29.037058068985	0.033421701851001
0	861826	29.057848384693	0.054212017558999
0	861845	29.058237751919	0.054601384784998
0	861859	29.058492077734	0.054855710599998
0	866020	29.183843165896	0.180206798762
0	893460	30.025269700335	0.021300000867999
0	893508	30.026072665662	0.022102966195
0	893534	30.026875630989	0.022905931522001
0	893895	30.035971890839	0.032002191372001
0	893998	30.038845392627	0.03487569316
0	894030	30.039563768074	0.035594068607001
0	894344	30.047817174556	0.043847475088999
0	894379	30.048775786114	0.044806086647
0	894448	30.050690676344	0.046720976877001
0	894684	30.057136380415	0.053166680947999
0	894690	30.057269563073	0.053299863606
0	895410	30.078745469971	0.074775770504001
0	926414	31.025603032668	0.021300000867999
0	926457	31.026405997995	0.022102966195
0	926494	31.027208963322	0.022905931522001
0	926774	31.035920181058	0.031617149258
0	926899	31.038793682846	0.034490651045999
0	926928	31.039512058293	0.035209026493
0	927194	31.047765464775	0.043462432975002
0	927223	31.048483840222	0.044180808421999
0	927302	31.050638966563	0.046335934763
0	927512	31.05780053734	0.053497505540001
0	927524	31.058014721264	0.053711689463999
0	928149	31.078741974025	0.074438942225001
0	957615	32.025936365001	0.021300000868003
0	957656	32.026739330328	0.022102966195
0	957690	32.027542295655	0.022905931521997
0	958412	32.047674231693	0.043037867560002
0	958539	32.050547733481	0.045911369347998
0	958565	32.051266108928	0.046629744794998
0	958801	32.05780053634	0.053164172206998
0	958819	32.058014720264	0.053378356130999
0	958880	32.05951951541	0.054883151277004
0	958904	32.060237890857	0.055601526723997
0	958998	32.062393017198	0.057756653064999
0	960193	32.097242137536	0.092605773403001
0	990231	33.026269697334	0.021300000868003
0	990280	33.027072662661	0.022102966195
0	990318	33.027875627988	0.022905931522004
0	990611	33.036586845724	0.031617149258004
0	990767	33.040178722959	0.035209026493
0	990796	33.040897098406	0.03592740194
0	991066	33.048432129441	0.043462432974998
0	991102	33.049150504888	0.044180808421999
0	991181	33.052024006676	0.047054310210001
0	991398	33.058730263559	0.053760567093001
0	991411	33.058944447483	0.053974751017002
0	992027	33.079741972024	0.074772275557997
0	1020888	34.026603029667	0.021300000868003
0	1020927	34.027405994994	0.022102966195
0	1020948	34.028208960321	0.022905931522004
0	1021762	34.058290852723	0.052987823923999
0	1021771	34.058505036647	0.053202007848
0	1022453	34.084353366109	0.079050337310001
0	1022554	34.087226867897	0.081923839098003
0	1022574	34.087945243344	0.082642214545004
0	1022800	34.096198649826	0.090895621027002
0	1022826	34.096917025273	0.091613996474003
0	1022883	34.099072151614	0.093769122815004
0	1026145	34.210069069334	0.204766040535
0	1053954	35.026886940895	0.021250579762999
0	1053965	35.02701376154	0.021377400407999
0	1053998	35.027778628412	0.022142267280003
0	1054023	35.028543495284	0.022907134152
0	1054353	35.037513891334	0.031877530202003
0	1054806	35.049325469772	0.043689108640002
0	1054831	35.050043845219	0.044407484087003
0	1054856	35.050762220666	0.045125859534004
0	1055161	35.058957816964	0.053321455831998
0	1055299	35.062445295044	0.056808933912002
0	1055519	35.069003108055	0.063366746923002
0	1055545	35.069756652277	0.064120291145002
0	1089419	36.027220273228	0.021250579762999
0	1089428	36.027347093873	0.021377400407999
0	1089470	36.028111960745	0.022142267280003
0	1089499	36.028876827617	0.022907134152
0	1089868	36.037847223667	0.031877530202003
0	1090366	36.049992135438	0.044022441972999
0	1090393	36.050710510885	0.044740817419999
0	1090448	36.05196178829	0.045992094825003
0	1090733	36.059291149297	0.053321455831998
0	1090900	36.063318801622	0.057349108156998
0	1091144	36.069716368808	0.063746675343005
0	1091196	36.071223457252	0.065253763786998
0	1124523	37.027553605561	0.021250579762999
0	1124537	37.027680426206	0.021377400407999
0	1124574	37.028445293078	0.022142267280003
0	1124616	37.02921015995	0.022907134152
0	1124933	37.038180556	0.031877530202003
0	1125443	37.050710509885	0.044407484087003
0	1125492	37.05196178729	0.045658761492
0	1125519	37.05255393375	0.046250907952
0	1125770	37.05962448163	0.053321455831998
0	1125943	37.063910947082	0.057607921284003
0	1126168	37.070388148168	0.064085122370003
0	1126195	37.07114169239	0.064838666592003
0	1159433	38.027886937894	0.021250579762999
0	1159445	38.028013758539	0.021377400407999
0	1159480	38.028778625411	0.022142267280003
0	1159517	38.029543492283	0.022907134152
0	1159884	38.038513888333	0.031877530202003
0	1160407	38.051428884332	0.044792526201
0	1160440	38.052147259779	0.045510901648001
0	1160466	38.052865635226	0.046229277095001
0	1160734	38.059957813963	0.053321455832005
0	1160911	38.064348877545	0.057712519414004
0	1161137	38.071106522615	0.064470164484
0	1161166	38.071860066837	0.065223708706
0	1193677	39.028220270227	0.021250579763006
0	1193877	39.03313160674	0.026161916276003
0	1193905	39.033896473612	0.026926783147999
0	1193932	39.034788447576	0.027818757112001
0	1194056	39.038847220666	0.031877530202003
0	1194476	39.050992132437	0.044022441973006
0	1194496	39.051710507884	0.044740817419999
0	1194523	39.052428883331	0.045459192867
0	1194775	39.060291146296	0.053321455832005
0	1194888	39.06391212565	0.056942435186002
0	1195094	39.07066977072	0.063700080256005
0	1195111	39.071423314942	0.064453624478006
0	1226845	40.02855360256	0.021250579763006
0	1226854	40.028680423205	0.021377400407999
0	1226897	40.029445290077	0.022142267280003
0	1226930	40.030210156949	0.022907134152
0	1227309	40.039180552999	0.031877530202003
0	1227829	40.05132546477	0.044022441973006
0	1227861	40.052043840217	0.044740817419999
0	1227888	40.052762215664	0.045459192867
0	1228199	40.060624478629	0.053321455832005
0	1228350	40.064245457983	0.056942435186002
0	1228612	40.071267430523	0.063964407726004
0	1228667	40.072774518967	0.065471496170005
0	1262143	41.028886934893	0.021250579763006
0	1262158	41.029013755538	0.021377400407999
0	1262200	41.02977862241	0.022142267280003
0	1262234	41.030543489282	0.022907134152
0	1262584	41.039513885332	0.031877530202003
0	1263075	41.051483232365	0.043846877235005
0	1263107	41.052201607812	0.044565252682006
0	1263132	41.052919983259	0.045283628129006
0	1263435	41.060957810962	0.053321455832005
0	1263569	41.064403225578	0.056766870448001
0	1263817	41.071160870648	0.063524515518004
0	1263847	41.07191441487	0.064278059740005
0	1296320	42.029220267226	0.021250579763006
0	1296493	42.033694078728	0.025724391265001
0	1296544	42.035223812472	0.027254125009001
0	1296570	42.035988679344	0.028018991881005
0	1296685	42.039847217665	0.031877530202003
0	1297041	42.051607087322	0.043637399859001
0	1297071	42.052325462769	0.044355775306002
0	1297094	42.053043838216	0.045074150753003
0	1297348	42.061291143295	0.053321455832005
0	1297444	42.064527080535	0.056557393072005
0	1297679	42.071284725605	0.063315038142001
0	1297710	42.072038269827	0.064068582364001
0	1330970	43.029553599559	0.021250579763006
0	1330984	43.029680420204	0.021377400408007
0	1331024	43.030445287076	0.022142267280003
0	1331058	43.031210153948	0.022907134152007
0	1331396	43.040435390806	0.03213237101
0	1331874	43.052762212664	0.044459192868004
0	1331905	43.053480588111	0.045177568315005
0	1331939	43.054198963558	0.045895943762005
0	1332258	43.061879316436	0.053576296640003
0	1332409	43.065682205877	0.057379186081
0	1332662	43.072439850947	0.064136831151004
0	1332688	43.073193395169	0.064890375373004
0	1366478	44.029886931892	0.021250579762999
0	1366496	44.03029295274	0.021656600610996
0	1366541	44.031057819612	0.022421467482999
0	1366576	44.031822686484	0.023186334354996
0	1366905	44.040513882331	0.031877530201996
0	1367378	44.052325460769	0.043689108639995
0	1367405	44.053043836216	0.044407484086996
0	1367438	44.053762211663	0.045125859533997
0	1367739	44.061957807961	0.053321455831998
0	1367878	44.065245453982	0.056609101852999
0	1368124	44.072003099052	0.063366746922995
0	1368151	44.072756643274	0.064120291144995
0	1399716	45.03026968533	0.021300000867996
0	1399762	45.031072650657	0.022102966195
0	1399798	45.031875615984	0.022905931521997
0	1400157	45.041618104105	0.032648419642996
0	1400275	45.044491605893	0.035521921430998
0	1400302	45.04520998134	0.036240296877999
0	1400608	45.053463387822	0.044493703359997
0	1400632	45.054181763269	0.045212078806998
0	1400711	45.05633688961	0.047367205147999
0	1400895	45.061957508386	0.052987823923999
0	1400904	45.06217169231	0.053202007848
0	1401714	45.086178710913	0.077209026450994
0	1434641	46.030603017663	0.021300000867996
0	1434681	46.03140598299	0.022102966195
0	1434721	46.032208948317	0.022905931521997
0	1435049	46.040920166053	0.031617149257997
0	1435207	46.044512043288	0.035209026493
0	1435238	46.045230418735	0.03592740194
0	1435508	46.05276544977	0.043462432974998
0	1435538	46.053483825217	0.044180808421999
0	1435649	46.056357327005	0.047054310209994
0	1435856	46.062290840719	0.052987823923999
0	1435865	46.062505024643	0.053202007848
0	1436585	46.084181352167	0.074878335371999
0	1470009	47.030936349996	0.021300000867996
0	1470056	47.031739315323	0.022102966195
0	1470100	47.03254228065	0.022905931521997
0	1470443	47.041512042291	0.031875693162995
0	1470614	47.045103919526	0.035467570397998
0	1470642	47.045822294973	0.036185945844998
0	1470921	47.053357326008	0.043720976879996
0	1470947	47.054075701455	0.044439352326997
0	1471065	47.056949203243	0.047312854114999
0	1471275	47.06293453276	0.053298183631995
0	1471284	47.063148716684	0.053512367555996
0	1472103	47.086051320005	0.076414970876996
0	1503119	48.031269682329	0.021300000867996
0	1503167	48.032072647656	0.022102966195
0	1503205	48.032875612983	0.022905931521997
0	1503557	48.041971872833	0.032002191372001
0	1503705	48.045563750068	0.035594068606997
0	1503730	48.046282125515	0.036312444053998
0	1504022	48.05381715655	0.043847475088995
0	1504056	48.054535531997	0.044565850535996
0	1504161	48.057409033785	0.047439352323998
0	1504348	48.062957505385	0.052987823923999
0	1504384	48.063608092398	0.053638410936998
0	1505141	48.084745451965	0.074775770503997
0	1538143	49.031603014662	0.021300000867996
0	1538182	49.032405979989	0.022102966195
0	1538214	49.033208945316	0.022905931521997
0	1538593	49.04269024728	0.032387233485998
0	1538722	49.046282124515	0.035979110721001
0	1538753	49.047000499962	0.036697486167995
0	1539037	49.054535530997	0.044232517203
0	1539058	49.055253906444	0.04495089265
0	1539161	49.058127408232	0.047824394437995
0	1539345	49.063290837718	0.052987823923999
0	1539357	49.063608091398	0.053305077604001
0	1540146	49.085971871789	0.075668857994998
0	1573288	50.031936346995	0.021300000867996
0	1573326	50.032739312322	0.022102966195
0	1573357	50.033542277649	0.022905931521997
0	1573660	50.042253495385	0.031617149257997
0	1573791	50.04584537262	0.035209026493
0	1573817	50.046563748067	0.03592740194
0	1574059	50.054098779102	0.043462432974998
0	1574089	50.054817154549	0.044180808421999
0	1574167	50.057690656337	0.047054310210001
0	1574333	50.063624170051	0.052987823923999
0	1574349	50.063838353975	0.053202007848
0	1574942	50.085638537456	0.075002191328998
0	1606737	51.032269679328	0.021300000867996
0	1606786	51.033072644655	0.022102966195
0	1606821	51.033875609982	0.022905931521997
0	1607174	51.042971869832	0.032002191372001
0	1607296	51.04584537162	0.034875693159997
0	1607327	51.046563747067	0.035594068606997
0	1607652	51.054817153549	0.043847475088995
0	1607676	51.055535528996	0.044565850535996
0	1607761	51.057690655337	0.046720976876998
0	1607996	51.064432441585	0.053462763124998
0	1608009	51.064608089397	0.053638410936998
0	1608773	51.086793662798	0.075823984338001
0	1642062	52.032603011661	0.021300000867996
0	1642114	52.033405976988	0.022102966195
0	1642150	52.034208942315	0.022905931521997
0	1642544	52.042971868832	0.031668858038998
0	1642683	52.04584537062	0.034542359827
0	1642716	52.046563746067	0.035260735274001
0	1643105	52.054817152549	0.043514141755999
0	1643136	52.055535527996	0.044232517203
0	1643230	52.057690654337	0.046387643544001
0	1643512	52.064290834717	0.052987823923999
0	1643522	52.064505018641	0.053202007848
0	1644579	52.090384648334	0.079081637541002
0	1682536	53.032873280931	0.021300000868003
0	1682596	53.033867352013	0.02229407195
0	1682639	53.03467031734	0.023097037277005
0	1683176	53.046932720096	0.035359440033005
0	1683316	53.049806221884	0.038232941821001
0	1683353	53.050524597331	0.038951317268001
0	1683704	53.058778003813	0.047204723749999
0	1683736	53.05949637926	0.047923099197
0	1683830	53.061651505601	0.050078225538002
0	1683947	53.064561103987	0.052987823923999
0	1683958	53.064775287911	0.053202007848
0	1685446	53.099374127727	0.087800847663999
0	1724208	54.033143550201	0.021300000867996
0	1724250	54.033946515528	0.022102966195
0	1724293	54.034749480855	0.022905931521997
0	1725395	54.061997226707	0.050153677373999
0	1725527	54.064831373257	0.052987823923999
0	1725532	54.064870728495	0.053027179162001
0	1725540	54.065045557181	0.053202007848
0	1725573	54.065589103942	0.053745554608994
0	1725921	54.073842510424	0.061998961091
0	1725951	54.074560885871	0.062717336538
0	1726048	54.076716012212	0.064872462878995
0	1728033	54.12593264149	0.11408909215699
0	1764187	55.033413819471	0.021300000868003
0	1764232	55.034216784798	0.022102966195
0	1764281	55.035019750125	0.022905931522004
0	1764707	55.044480467161	0.032366648558003
0	1764890	55.048072344396	0.035958525792999
0	1764919	55.048790719843	0.03667690124
0	1765268	55.056325750878	0.044211932274997
0	1765308	55.057044126325	0.044930307721998
0	1765425	55.059917628113	0.04780380951
0	1765672	55.065419546398	0.053305727794999
0	1765689	55.065633730322	0.053519911719
0	1766827	55.09261162211	0.080497803507001
0	1805996	56.033684088741	0.021300000867996
0	1806046	56.034487054068	0.022102966195
0	1806079	56.035290019395	0.022905931521997
0	1806868	56.054029606692	0.041645518818996
0	1807041	56.057621483927	0.045237396053999
0	1807070	56.058339859374	0.045955771500999
0	1807367	56.065475064298	0.053090976424997
0	1807381	56.065689248222	0.053305160348998
0	1807403	56.066141303259	0.053757215386
0	1807429	56.066593358296	0.054209270422994
0	1807546	56.069466767644	0.057082679771
0	1809380	56.113654768793	0.10127068092
0	1845717	57.033954358011	0.021300000868003
0	1845770	57.034948429093	0.02229407195
0	1845810	57.03575139442	0.023097037276997
0	1846421	57.04759002784	0.034935670697003
0	1846563	57.050463529628	0.037809172484998
0	1846597	57.051181905075	0.038527547931999
0	1847019	57.059435311557	0.046780954413997
0	1847049	57.060153687004	0.047499329860997
0	1847142	57.062308813345	0.049654456201999
0	1847291	57.065642181067	0.052987823923999
0	1847305	57.065856364991	0.053202007848
0	1848764	57.098594684577	0.085940327434002
0	1887340	58.034224627281	0.021300000868003
0	1887382	58.035027592608	0.022102966195
0	1887430	58.035830557935	0.022905931522004
0	1888242	58.054085714866	0.041161088453002
0	1888379	58.056959216654	0.044034590241004
0	1888414	58.057677592101	0.044752965688005
0	1888757	58.065912450337	0.052987823924006
0	1888762	58.065930998583	0.053006372170003
0	1888778	58.06638305362	0.053458427207005
0	1888806	58.066835108657	0.053910482244
0	1888888	58.068804500371	0.055879873958006
0	1890649	58.112274126073	0.099349499660001
0	1927023	59.034494896551	0.021300000867996
0	1927073	59.035297861878	0.022102966195
0	1927110	59.036100827205	0.022905931521997
0	1927446	59.045260150118	0.032065254434997
0	1927567	59.048133651906	0.034938756222999
0	1927590	59.048852027353	0.03565713167
0	1927906	59.057105433835	0.043910538151998
0	1927931	59.057823809282	0.044628913598999
0	1928005	59.059978935623	0.04678403994
0	1928220	59.066182719607	0.052987823923999
0	1928227	59.066396903531	0.053202007848
0	1929019	59.088503393318	0.075308497635
0	1969220	60.044972567502	0.031507402549003
0	1969260	60.045560741643	0.032095576690004
0	1969290	60.046148915784	0.032683750831005
0	1969322	60.046737089925	0.033271924971999
0	1969377	60.047829242686	0.034364077733002
0	1969467	60.049984369027	0.036519204074004
0	1969501	60.050702744474	0.037237579521005
0	1969751	60.056801024615	0.043335859662001
0	1969790	60.057519400062	0.044054235109002
0	1970124	60.065958534245	0.052493369292002
0	1970580	60.076485863211	0.063020698258001
0	1971341	60.094523646741	0.081058481787998
0	2009942	61.045195203171	0.031459768947997
0	2009980	61.045783377312	0.032047943088997
0	2010016	61.046371551453	0.032636117229998
0	2010043	61.046959725594	0.033224291370999
0	2010456	61.057166585738	0.043431151514994
0	2010525	61.058603336632	0.044867902408996
0	2010560	61.059321712079	0.045586277855996
0	2010803	61.066138367667	0.052402933444
0	2010836	61.066856743114	0.053121308891001
0	2011183	61.076756132481	0.063020698258001
0	2011310	61.080239556197	0.066504121973999
0	2011971	61.100395283198	0.086659848974996
0	2050918	62.045465472441	0.031459768948004
0	2050951	62.046053646582	0.032047943088997
0	2051033	62.047229994864	0.033224291370999
0	2051058	62.047617174888	0.033611471394998
0	2051069	62.047818169005	0.033812465512
0	2051123	62.049053925782	0.035048222288999
0	2051165	62.049772301229	0.035766597736
0	2051452	62.056588956817	0.042583253324004
0	2051495	62.057307332264	0.043301628770998
0	2051912	62.066985322043	0.052979618549998
0	2052344	62.077253167022	0.063247463529002
0	2053087	62.09502995439	0.081024250897002
0	2092260	63.046053645582	0.031777672818997
0	2092304	63.046641819723	0.032365846959998
0	2092339	63.047229993864	0.032954021100998
0	2092364	63.047818168005	0.033542195241999
0	2093106	63.063996927062	0.049720954298998
0	2093212	63.066152053403	0.05187608064
0	2093244	63.066769342055	0.052493369291994
0	2093249	63.06687042885	0.052594456086993
0	2093512	63.072968708991	0.058692736227997
0	2093544	63.073687084438	0.059411111674997
0	2093702	63.077296671021	0.063020698257994
0	2095807	63.133679345421	0.119403372658
0	2132854	64.046006010981	0.031459768948011
0	2132895	64.046594185122	0.032047943089012
0	2132925	64.047182359263	0.032636117230012
0	2132950	64.047770533404	0.033224291371013
0	2133168	64.052858765102	0.03831252306901
0	2133245	64.054295515996	0.039749273963011
0	2133277	64.055013891443	0.040467649410004
0	2133581	64.061830547031	0.047284304998001
0	2133617	64.062548922478	0.048002680445009
0	2133830	64.067453867587	0.052907625554013
0	2134267	64.077566940291	0.063020698258001
0	2135428	64.10601854818	0.091472306147011

