version 2
run Net10-0-20181104-23:41:29-13396
attr configname Net10
attr datetime 20181104-23:41:29
attr experiment Net10
attr inifile omnetpp.ini
attr iterationvars ""
attr iterationvarsf ""
attr measurement ""
attr network mogp.networks.Net10
attr processid 13396
attr repetition 0
attr replication #0
attr resultdir results
attr runnumber 0
attr seedset 0
param **.eventStorage.packetLength "1024 byte"
param **.node[*].operator[*].packetLength "1024 byte"

vector 0 Net10.eventStorage "End-to-End Delay" ETV
0	98	5	0
0	105	5.000740740741	0
0	112	5.001481481482	0
0	119	5.002222222223	0
0	126	5.002962962964	0
0	133	5.003703703705	0
0	140	5.004444444446	0
0	147	5.005185185187	0
0	154	5.005925925928	0
0	161	5.006666666669	0
0	168	5.00740740741	0
0	175	5.008148148151	0
0	182	5.008888888892	0
0	189	5.009629629633	0
0	196	5.010370370374	0
0	203	5.011111111115	0
0	210	5.011851851856	0
0	217	5.012592592597	0
0	224	5.013333333338	0
0	231	5.014074074079	0
0	238	5.01481481482	0
0	75560	10.60319108117	0.021156447468
0	75586	10.604143462122	0.021156447468
0	75605	10.604861837569	0.021398632439
0	75620	10.605580213016	0.021164626933999
0	75635	10.606298588463	0.021406811905001
0	75662	10.60701696391	0.021648996876001
0	75677	10.607735339357	0.021414991371
0	75697	10.608453714804	0.021657176342
0	75714	10.609172090251	0.021423170837
0	75733	10.609890465698	0.021665355807999
0	75758	10.610608841145	0.021907540779001
0	75773	10.611327216592	0.021673535274001
0	75790	10.612045592039	0.021915720245
0	75807	10.612763967486	0.02168171474
0	75831	10.613482342933	0.021923899711
0	76065	10.624662287823	0.042151463645
0	76098	10.626346422837	0.042407027230999
0	76136	10.627995621155	0.042151463645
0	76169	10.629679756169	0.042407027231
0	76201	10.631328954487	0.042151463645
0	76232	10.633013089501	0.042407027231
0	159033	14.926386847744	0.021156447468
0	159058	14.927127588484	0.021156447468
0	159080	14.927845963931	0.021504452545001
0	159102	14.928564339378	0.021482087252
0	159124	14.929282714825	0.021830092329001
0	159146	14.930001090272	0.022178097406
0	159167	14.930719465719	0.022155732112999
0	159184	14.931437841166	0.02250373719
0	159210	14.932156216613	0.022481371897001
0	159231	14.93287459206	0.022829376974
0	159251	14.933592967507	0.023177382050999
0	159273	14.934311342954	0.023155016758
0	159298	14.935029718401	0.023503021834999
0	159321	14.935748093848	0.023480656542
0	159339	14.936466469295	0.023828661619001
0	159629	14.947752234291	0.042151463645
0	159661	14.949118908987	0.042407027231
0	159695	14.950344826881	0.042151463645
0	159734	14.952010104925	0.042705630579
0	159759	14.952937419471	0.042151463645
0	159801	14.954602697515	0.042705630579
0	249817	18.725219457009	0.021156447468002
0	249846	18.725937832456	0.021268762309003
0	249874	18.726656207903	0.021684107452998
0	249892	18.72737458335	0.021796422293999
0	249921	18.728092958797	0.022211767437998
0	249949	18.728811334244	0.022627112582001
0	249970	18.729529709691	0.022739427423002
0	249995	18.730248085138	0.023154772567
0	250020	18.730966460585	0.023267087407998
0	250041	18.731684836032	0.023682432552
0	250062	18.732403211479	0.024097777695999
0	250087	18.733121586926	0.024210092537
0	250110	18.733839962373	0.024625437680999
0	250133	18.73455833782	0.024737752522
0	250164	18.735276713267	0.025153097665999
0	250510	18.746517503489	0.042151463644998
0	250550	18.747913782867	0.042638652114
0	250576	18.74863871561	0.042151463644998
0	250612	18.750034994988	0.042638652114
0	250635	18.750759927731	0.042151463645002
0	250686	18.752347889924	0.042830334929
0	347523	22.238175509576	0.021188612250999
0	347554	22.238893885023	0.021394167185999
0	347584	22.23961226047	0.021856132377
0	347614	22.240330635917	0.022061687312
0	347633	22.241049011364	0.022523652502997
0	347664	22.241767386811	0.022985617693998
0	347695	22.242485762258	0.023191172628998
0	347724	22.243204137705	0.023653137820002
0	347751	22.243922513152	0.023858692755002
0	347771	22.244640888599	0.024320657946003
0	347796	22.245359264046	0.024782623137
0	347827	22.246077639493	0.024988178072
0	347853	22.24679601494	0.025450143263001
0	347879	22.247514390387	0.025655698198001
0	347901	22.248232765834	0.026117663389002
0	348294	22.259394771226	0.042151463644998
0	348355	22.261150721974	0.043138183625
0	348360	22.261189643018	0.042151463644998
0	348415	22.262823058935	0.043015648794
0	348424	22.26298451481	0.042151463645002
0	348476	22.264575347019	0.042973065086002
0	452312	25.586953162661	0.042151463645002
0	452367	25.58856235806	0.042151463644998
0	452423	25.590171553459	0.042151463645002
0	455362	25.679078888764	0.134507074805
0	455388	25.679797264211	0.134765680138
0	455413	25.680515639658	0.135254170528
0	455441	25.681234015105	0.135512775861
0	455467	25.681952390552	0.136001266251
0	455492	25.682670765999	0.136489756641
0	455520	25.683389141446	0.136748361974
0	455544	25.684107516893	0.137236852364
0	455575	25.68482589234	0.137495457697
0	455600	25.685544267787	0.137983948087
0	455623	25.686262643234	0.138472438477
0	455653	25.686981018681	0.13873104381
0	455682	25.687699394128	0.1392195342
0	455708	25.688417769575	0.139478139533
0	455739	25.689136145022	0.139966629923
0	456279	25.704925138003	0.159433783816
0	456357	25.707115498108	0.160014948522
0	456431	25.709305858213	0.160596113228
0	559783	28.792117444956	0.042151463644998
0	559839	28.793575778287	0.042151463645002
0	559894	28.795034111618	0.042151463644998
0	569696	29.077641627682	0.327883979704
0	569726	29.078360003129	0.328185688485
0	569751	29.079078378576	0.328695730599
0	569782	29.079796754023	0.32899743938
0	569809	29.08051512947	0.329507481494
0	569838	29.081233504917	0.330017523608
0	569868	29.081951880364	0.330319232389
0	569893	29.082670255811	0.330829274503
0	569923	29.083388631258	0.331130983284
0	569952	29.084107006705	0.331641025398
0	569978	29.084825382152	0.332151067512
0	570010	29.085543757599	0.332452776293
0	570042	29.086262133046	0.332962818407
0	570076	29.086980508493	0.333264527188
0	570102	29.08769888394	0.333774569302
0	570715	29.104206252368	0.353615271058
0	570798	29.106396612473	0.354347297832
0	570861	29.108148900557	0.354641252585
0	670772	31.905021491418	0.042151463645002
0	670828	31.906354824748	0.042151463645002
0	670882	31.907688158078	0.042151463644998
0	708691	32.928732764293	1.06605321271
0	708721	32.92945113974	1.066390635777
0	708749	32.930169515187	1.066918535034
0	708778	32.930887890634	1.067255958101
0	708808	32.931606266081	1.067783857358
0	708836	32.932324641528	1.068311756615
0	708868	32.933043016975	1.068649179682
0	708895	32.933761392422	1.069177078939
0	708929	32.934479767869	1.069514502006
0	708960	32.935198143316	1.070042401263
0	708987	32.935916518763	1.07057030052
0	709017	32.93663489421	1.070907723587
0	709051	32.937353269657	1.071435622844
0	709081	32.938071645104	1.071773045911
0	709114	32.938790020551	1.072300945168
0	709912	32.959397805763	1.09595634942
0	710004	32.961710700699	1.096935911026
0	710085	32.963778525973	1.09767040297
0	785435	34.946284095019	0.042151463645006
0	785491	34.947512165191	0.042151463644998
0	785544	34.948740235363	0.042151463644998
0	859499	36.831516399382	1.927559206604
0	859533	36.832234774829	1.927926704859
0	859565	36.832953150276	1.92846964171
0	859596	36.833671525723	1.928837139965
0	859629	36.83438990117	1.929380076816
0	859657	36.835108276617	1.929923013667
0	859689	36.835826652064	1.930290511922
0	859720	36.836545027511	1.930833448773
0	859754	36.837263402958	1.931200947028
0	859785	36.837981778405	1.931743883879
0	859813	36.838700153852	1.93228682073
0	859854	36.839418529299	1.932654318985
0	859886	36.840136904746	1.933197255836
0	859916	36.840855280193	1.933564754091
0	859953	36.84157365564	1.934107690942
0	860801	36.862181440852	1.95752249369
0	860876	36.863933728936	1.958046711602
0	860963	36.866124089041	1.959009001535
0	903785	37.932753930115	0.042151463644998
0	903835	37.933892141497	0.042151463644998
0	903887	37.935030352879	0.042151463644998
0	1024685	40.876685939411	0.042151463644998
0	1024730	40.877746545475	0.042151463644998
0	1024785	40.878807151539	0.042151463644998
0	1032283	41.05803525799	3.167595393146
0	1032317	41.058753633437	3.167988565341
0	1032351	41.059472008884	3.168544339162
0	1032384	41.060190384331	3.168937511357
0	1032421	41.060908759778	3.169493285178
0	1032452	41.061627135225	3.170049058999
0	1032483	41.062345510672	3.170442231194
0	1032516	41.063063886119	3.170998005015
0	1032550	41.063782261566	3.17139117721
0	1032585	41.064500637013	3.171946951031
0	1032618	41.06521901246	3.172502724852
0	1032654	41.065937387907	3.172895897047
0	1032693	41.066655763354	3.173451670868
0	1032722	41.067374138801	3.173844843063
0	1032759	41.068092514248	3.174400616884
0	1033743	41.09073289097	3.199642619622
0	1033838	41.092923251075	3.200694768345
0	1033938	41.09511361118	3.201746917068
0	1147863	43.785100836321	0.043013452643002
0	1147906	43.786094907403	0.043014615920995
0	1147955	43.787088978485	0.043015779199003
0	1217177	45.404147778331	4.569764817717
0	1217212	45.404866153778	4.57018016286
0	1217243	45.405584529225	4.570747023155
0	1217279	45.406302904672	4.571162368298
0	1217311	45.407021280119	4.571729228593
0	1217348	45.407739655566	4.572296088888
0	1217381	45.408458031013	4.572711434031
0	1217414	45.40917640646	4.573278294326
0	1217450	45.409894781907	4.573693639469
0	1217487	45.410613157354	4.574260499764
0	1217516	45.411331532801	4.574827360059
0	1217552	45.412049908248	4.575242705202
0	1217592	45.412768283695	4.575809565497
0	1217626	45.413486659142	4.57622491064
0	1217664	45.414205034589	4.576791770935
0	1218793	45.439631612032	4.60464259081
0	1218874	45.441383900116	4.60533427283
0	1218978	45.443696795052	4.606586561702
0	1276729	46.771290366649	0.14961432884
0	1276772	46.772284437731	0.149675066591
0	1276822	46.773278508813	0.149735804342
0	1417855	49.906590559277	0.429415348488
0	1417904	49.907584630359	0.429528916422
0	1417950	49.908578701441	0.429642484356
0	1427055	50.10860321185	6.366657672144
0	1427087	50.109321587297	6.367092359647
0	1427124	50.110039962744	6.367668891122
0	1427160	50.110758338191	6.368103578625
0	1427196	50.111476713638	6.3686801101
0	1427232	50.112195089085	6.369256641575
0	1427268	50.112913464532	6.369691329078
0	1427301	50.113631839979	6.370267860553
0	1427337	50.114350215426	6.370702548056
0	1427377	50.115068590873	6.371279079531
0	1427410	50.11578696632	6.371855611006
0	1427452	50.116505341767	6.372290298509
0	1427486	50.117223717214	6.372866829984
0	1427522	50.117942092661	6.373301517487
0	1427563	50.118660468108	6.373878048962
0	1428885	50.147153549698	6.404640634104
0	1428994	50.149343909803	6.405838086405
0	1429076	50.151096197887	6.406597466685
0	1568842	53.191001414205	0.878545596461
0	1568892	53.191995485287	0.87870633421
0	1568945	53.192989556369	0.878867071959
0	1650970	54.936594955291	8.315052250815
0	1651009	54.937313330738	8.315503959596
0	1651045	54.938031706185	8.31608900171
0	1651085	54.938750081632	8.316540710491
0	1651120	54.939468457079	8.317125752605
0	1651154	54.940186832526	8.317710794719
0	1651196	54.940905207973	8.3181625035
0	1651228	54.94162358342	8.318747545614
0	1651268	54.942341958867	8.319199254395
0	1651304	54.943060334314	8.319784296509
0	1651343	54.943778709761	8.320369338623
0	1651381	54.944497085208	8.320821047404
0	1651422	54.945215460655	8.321406089518
0	1651458	54.945933836102	8.321857798299
0	1651500	54.946652211549	8.322442840413
0	1661757	55.161325902064	8.539249864256
0	1661874	55.163638797	8.540629425861
0	1661977	55.165706622274	8.541763917804
0	1731866	56.624522931433	1.49391746806
0	1731919	56.625517002515	1.494120578692
0	1731974	56.626511073597	1.494323689324
0	1907534	60.206161039879	2.274021855308
0	1907590	60.207155110961	2.274250899071
0	1907645	60.208149182043	2.274479942834
0	1910098	60.256103506294	10.779054081669
0	1910136	60.256821881741	10.779520884788
0	1910173	60.257540257188	10.780113474071
0	1910212	60.258258632635	10.78058027719
0	1910251	60.258977008082	10.781172866473
0	1910290	60.259695383529	10.781765455756
0	1910329	60.260413758976	10.782232258875
0	1910368	60.261132134423	10.782824848158
0	1910407	60.26185050987	10.783291651277
0	1910450	60.262568885317	10.78388424056
0	1910485	60.263287260764	10.784476829843
0	1910527	60.264005636211	10.784943632962
0	1910567	60.264724011658	10.785536222245
0	1910607	60.265442387105	10.786003025364
0	1910651	60.266160762552	10.786595614647
0	1947559	61.004768590183	11.527216020902
0	1947669	61.006958950288	11.528525877859
0	1947788	61.009149310393	11.529835734816

