version 2
run Net10-0-20190301-14:07:59-2400
attr configname Net10
attr datetime 20190301-14:07:59
attr experiment Net10
attr inifile omnetpp.ini
attr iterationvars ""
attr iterationvarsf ""
attr measurement ""
attr network mogp.networks.Net10
attr processid 2400
attr repetition 0
attr replication #0
attr resultdir results
attr runnumber 0
attr seedset 0
param **.eventStorage.packetLength "1024 byte"
param **.node[*].operator[*].packetLength "1024 byte"

vector 0 Net10.eventStorage "End-to-End Delay" ETV
0	98	5	0
0	105	5.000833333333	0
0	112	5.001666666666	0
0	119	5.002499999999	0
0	126	5.003333333332	0
0	133	5.004166666665	0
0	140	5.004999999998	0
0	147	5.005833333331	0
0	154	5.006666666664	0
0	161	5.007499999997	0
0	168	5.00833333333	0
0	175	5.009166666663	0
0	45671	7.658349429759	0.021156447468001
0	45696	7.659067805206	0.02161166502
0	47166	7.701841384338	0.064122086257
0	47533	7.712367700138	0.074385244161999
0	49759	7.779822094012	0.141576480141
0	49808	7.780998442294	0.142226512633
0	49834	7.781586616435	0.142551528879
0	50518	7.80128186296	0.162773091194
0	50956	7.813771475032	0.174473229581
0	50983	7.814415168073	0.174853764727
0	51008	7.815058861114	0.175234299873
0	51037	7.815702554155	0.175614835019
0	88233	8.925717852079	0.021156447468
0	88261	8.926436227526	0.02161166502
0	89709	8.969209806658	0.064122086257001
0	90039	8.97903021666	0.073679338364
0	100407	9.31966199515	0.414047958959
0	100449	9.320838343432	0.414697991451
0	100474	9.321426517573	0.415023007697
0	101112	9.341121764098	0.435244570012
0	101492	9.35361137617	0.446944708399
0	101510	9.354255069211	0.447325243545
0	101536	9.354898762252	0.447705778691
0	101571	9.355542455293	0.448086313837
0	220050	13.714113437069	0.021156447468
0	220071	13.714831812516	0.021552242269999
0	221380	13.75774219105	0.064140040159
0	221674	13.7676040699	0.073679338364
0	258916	14.989072540249	1.294825228068
0	258947	14.990248888531	1.29535641506
0	258973	14.990837062672	1.295622008556
0	259632	15.010532309197	1.315962416371
0	260073	15.023021921269	1.327484286508
0	260097	15.02366561431	1.327805398904
0	260118	15.024309307351	1.3281265113
0	260146	15.024953000392	1.328447623696
0	346668	17.743790855497	0.021156447468002
0	346690	17.744509230944	0.021630920475999
0	347936	17.787282810076	0.064160597169
0	348258	17.79704545371	0.073679338363998
0	429581	20.489677106881	2.766067089096
0	429638	20.490853455163	2.7667556325
0	429662	20.491441629304	2.767099904202
0	430336	20.511136875829	2.787282955605
0	431480	20.546645928637	2.822060301096
0	431502	20.547289621678	2.822460091698
0	431536	20.547933314719	2.8228598823
0	431566	20.54857700776	2.823259672902
0	459130	21.425104774735	0.021156447468002
0	459161	21.425823150182	0.021580705268001
0	460543	21.468596729314	0.064060166753002
0	460871	21.478510018572	0.073679338363998
0	559872	24.892160552266	3.487035754411
0	559935	24.893336900548	3.487623867399
0	559957	24.893925074689	3.487917923893
0	560635	24.913620321214	3.508201405712
0	561080	24.926109933286	3.519808664843
0	561102	24.926753626327	3.520158240237
0	561123	24.927397319368	3.520507815631
0	561151	24.928041012409	3.520857391025
0	569603	25.193600348405	0.021416727774
0	569635	25.194318723852	0.021840985573998
0	571004	25.237092302984	0.064320447059
0	571294	25.246745311936	0.073679338363998
0	685354	29.019957714591	0.021156447467998
0	685384	29.020676090038	0.021562322914999
0	686463	29.06344966917	0.064023402046999
0	686693	29.073418105487	0.073679338364002
0	695498	29.444628403606	4.271268312387
0	695529	29.445804751888	4.271856425375
0	695550	29.446392926029	4.272150481869
0	696077	29.466088172554	4.292433963688
0	696453	29.478577784626	4.304041222819
0	696473	29.479221477667	4.304390798213
0	696499	29.479865170708	4.304740373607
0	696527	29.480508863749	4.305089949001
0	794155	32.589508996743	0.021156447468002
0	794192	32.59022737219	0.021618412659002
0	795723	32.633000951322	0.064135581534998
0	796053	32.642801118407	0.073679338364002
0	831435	33.795352524583	4.79530125746
0	831486	33.796528872865	4.795852605742
0	831516	33.797117047006	4.796128279883
0	832232	33.816812293531	4.816448526408
0	832694	33.829301905603	4.82800063848
0	832721	33.829945598644	4.828331831521
0	832751	33.830589291685	4.828663024562
0	832785	33.831232984726	4.828994217603
0	986755	37.232036186323	0.042465692232
0	986823	37.233323572405	0.043128078313998
0	986892	37.234610958487	0.044102964395996
0	987113	37.239631988011	0.052561493920003
0	987211	37.241490101487	0.052544607396001
0	987633	37.250412175222	0.063029181130993
0	987789	37.253411858144	0.063528864052998
0	988160	37.261310611811	0.073615117719996
0	988205	37.262382235489	0.074374241397997
0	988243	37.263040135023	0.073782140931996
0	1022432	38.044910693308	5.475532503009
0	1022486	38.04608704159	5.476196030779
0	1022513	38.046675215731	5.476527794664
0	1023396	38.066370462256	5.496735861701
0	1023943	38.078860074328	5.508456243005
0	1023978	38.079503767369	5.50884352579
0	1024053	38.080791153451	5.509874501616
0	1024088	38.081434846492	5.510261784401
0	1162978	41.298513058351	0.042275899593996
0	1163012	41.299156751392	0.042419592635
0	1163046	41.299800444433	0.042813285675997
0	1163406	41.306798652677	0.052561493919995
0	1163501	41.308409498785	0.052672340027996
0	1163982	41.317516339888	0.063029181131
0	1164141	41.320385657943	0.063898499186003
0	1164539	41.328293668854	0.073556510096999
0	1164577	41.328937361895	0.073950203138004
0	1164607	41.329644299689	0.073657140931999
0	1170895	41.453754251621	4.26543375753
0	1170919	41.454342425762	4.265709431671
0	1228837	42.634807926749	1.379570767992
0	1228865	42.63539610089	1.379908942133
0	1313642	44.489785839051	0.031548680294001
0	1313676	44.490374013192	0.031886854434994
0	1314245	44.50193784809	0.042700689333003
0	1314276	44.502395061102	0.042657902344999
0	1314309	44.502954501189	0.042967342432
0	1314620	44.509798652677	0.052561493920003
0	1314703	44.511281766153	0.052544607396001
0	1315128	44.520516339888	0.063029181131
0	1315268	44.523385657943	0.063898499186003
0	1315615	44.531784775477	0.074047616720001
0	1315654	44.532428468518	0.074441309760999
0	1315698	44.533308273183	0.074321114425999
0	1440256	47.660237158757	0
0	1441236	47.683581678246	0.021344519488999
0	1441271	47.684300053693	0.021562894936004
0	1441308	47.68501842914	0.022031270383003
0	1441632	47.692784383266	0.032297224509001
0	1442311	47.707558126833	0.045070968076004
0	1442600	47.714579544506	0.053592385749006
0	1442617	47.714835440031	0.053348281273998
0	1442646	47.715465755365	0.054728596608001
0	1442692	47.716122826113	0.054885667356004
0	1442722	47.716766519154	0.055029360397
0	1443606	47.738195848971	0.076208690213996
0	1561732	50.751421371027	0
0	1562611	50.772795137195	0.021110608272998
0	1562718	50.774857995781	0.021331361594001
0	1562746	50.775576371228	0.021523421250997
0	1562781	50.776294746675	0.021978638802999
0	1563232	50.786536555421	0.032746763339006
0	1563562	50.794444183953	0.042496497136
0	1563591	50.795101254701	0.042627252094
0	1563629	50.795744947742	0.042744629345002
0	1564004	50.805026018653	0.052815173941006
0	1564061	50.806326782442	0.053589621939999
0	1564484	50.816998878886	0.063735402593998
0	1684162	54.130810461128	0
0	1684946	54.152394558689	0.021306319783001
0	1685036	54.154349425063	0.021316741710997
0	1685068	54.15506780051	0.021479561602
0	1685102	54.155786175957	0.021920159270998
0	1685481	54.166135976915	0.032825515784999
0	1685742	54.174043605447	0.042677588762999
0	1685766	54.174700676195	0.042779103955006
0	1685817	54.175988062277	0.043510934480999
0	1686122	54.184491586986	0.052847792523998
0	1686163	54.185792350775	0.053593000756997
0	1686554	54.196465198634	0.063710293060005
0	1815176	58.02487296183	0
0	1815857	58.046296070103	0.021110608272998
0	1815951	58.048654981319	0.021282019489
0	1815979	58.049373356766	0.021375394936001
0	1816001	58.050091732213	0.021781270383002
0	1816318	58.059393795288	0.031708333457999
0	1816593	58.067945116861	0.042447155030999
0	1816614	58.068602187609	0.042479225778997
0	1816640	58.06924588065	0.042497918820004
0	1816948	58.078444326171	0.052633864340997
0	1816985	58.07974508996	0.053309628130002
0	1817322	58.090514013468	0.063453551637998
0	1990737	62.807797720414	0.031987255170002
0	1990786	62.808931257988	0.032009681632005
0	1990817	62.809519432129	0.032320077995003
0	1990872	62.810391789002	0.032359101533999
0	1990921	62.811313192582	0.032724949558002
0	1990955	62.811828539896	0.032962519093999
0	1991350	62.820492865815	0.042182400568997
0	1991864	62.831463876591	0.053986744679001
0	1992275	62.841131053774	0.065042810751997
0	1992715	62.851206710257	0.074840689456998
0	1992775	62.85252092632	0.075877127741997
0	1993172	62.862264591364	0.084509681674
0	2158158	66.810959274209	0.031815472429003
0	2158211	66.811986816746	0.031731903853995
0	2158237	66.812574990887	0.032042300217
0	2158757	66.823826202351	0.042182400569004
0	2160106	66.853994456178	0.074295098842001
0	2160165	66.85487060022	0.074893465106001
0	2160641	66.865908324263	0.084820078036998
0	2161889	66.896178316467	0.114812292463
0	2161926	66.896896691914	0.114975112354
0	2161951	66.897615067361	0.115415710023
0	2162738	66.916709039052	0.135898570604
0	2163302	66.93060133326	0.151179753702
0	2320574	70.549510128793	0.042553826830002
0	2322218	70.590875296927	0.084543994963994
0	2325778	70.676135291937	0.171991489974
0	2325948	70.680007650245	0.17461384828201
0	2326020	70.681183998527	0.175477696564
0	2327229	70.709866837554	0.20509803559101
0	2327262	70.710742981596	0.205661679633
0	2335388	70.90399493528	0.397351133317
0	2335413	70.904713310727	0.39744450876401
0	2335450	70.905431686174	0.397850384211
0	2336239	70.924382650245	0.418363848282
0	2338944	70.988042570889	0.48358626892599
0	2492834	74.869128234753	0.03232371667599
0	2492879	74.86999761195	0.032050236729006
0	2492914	74.870585786091	0.032352696583999
0	2493404	74.881878425197	0.042502478545998
0	2494642	74.911274493991	0.073898547341997
0	2494717	74.912823519327	0.075161858391994
0	2495170	74.923426183432	0.084621665352998
0	2496730	74.958620285899	0.11953005353401
0	2496753	74.959338661346	0.119677000409
0	2496785	74.960057036793	0.12010966157
0	2497604	74.979123723633	0.14060491984
0	2498033	74.989566306894	0.15247607453101
0	2658199	78.799461887496	0.042225135612995
0	2658567	78.807801439192	0.051846738589006
0	2658572	78.807802667632	0.052873608053005
0	2658634	78.808977787474	0.052766676614993
0	2660095	78.841308966498	0.084585035127006
0	2660342	78.846791077501	0.091349197409997
0	2660400	78.847667221543	0.091968931195993
0	2667289	78.998798183248	0.241817841621
0	2667324	78.999516558695	0.24202339655599
0	2667360	79.000234934142	0.242485361747
0	2668185	79.019182330533	0.262714809418
0	2668757	79.032095542384	0.276910072549
0	2822164	82.376401543779	0.042967170617004
0	2823948	82.41706204753	0.084115479245995
0	2824032	82.418857432163	0.086642571195995
0	2824062	82.419445606304	0.086986842898
0	2824169	82.421866234043	0.090626982831992
0	2826331	82.473558732521	0.14183167643201
0	2826373	82.474434876563	0.14246391803499
0	2843867	82.888801228753	0.55561075803
0	2843912	82.8895196042	0.555841328599
0	2843948	82.890237979647	0.556315801607
0	2844845	82.909889471336	0.577186805491
0	2848376	82.98566492507	0.65418177142
0	2986453	86.123391801552	0.03767361330101
0	2986480	86.123979975693	0.038034514715008
0	2986490	86.124301749052	0.039492651708997
0	2986777	86.129177947204	0.042323395318007
0	2988744	86.168108951152	0.08284530835499
0	2988813	86.169423167215	0.083932251690996
0	2988924	86.171479975636	0.085079969204003
0	3020933	86.874551236842	0.78792395768299
0	3020964	86.875066584156	0.78798475954301
0	3021002	86.875784959603	0.788475862263
0	3021931	86.894795421637	0.808622687932
0	3027506	87.010083375514	0.925047005444

