version 2
run Net10-0-20190225-12:26:08-15964
attr configname Net10
attr datetime 20190225-12:26:08
attr experiment Net10
attr inifile omnetpp.ini
attr iterationvars ""
attr iterationvarsf ""
attr measurement ""
attr network mogp.networks.Net10
attr processid 15964
attr repetition 0
attr replication #0
attr resultdir results
attr runnumber 0
attr seedset 0
param **.eventStorage.packetLength "1024 byte"
param **.node[*].operator[*].packetLength "1024 byte"

vector 0 Net10.eventStorage "End-to-End Delay" ETV
0	98	5	0
0	105	5.00027027027	0
0	112	5.00054054054	0
0	119	5.00081081081	0
0	126	5.00108108108	0
0	133	5.00135135135	0
0	140	5.00162162162	0
0	147	5.00189189189	0
0	154	5.00216216216	0
0	161	5.00243243243	0
0	168	5.0027027027	0
0	175	5.00297297297	0
0	177911	9.038451003383	0.031694250632999
0	178350	9.047605831128	0.041930159457999
0	178803	9.05715608451	0.052561493920001
0	178848	9.057874459957	0.053009599097001
0	179003	9.060368944331	0.053071651041
0	179055	9.061363015413	0.053795451852999
0	179415	9.069269509149	0.063323567209
0	179480	9.070445857431	0.064229645221001
0	179862	9.078772977409	0.073637846279
0	179892	9.079335334268	0.073929932868001
0	179954	9.080785732032	0.073758709012001
0	180468	9.091855470138	0.085368987658001
0	355650	13.099192898957	0.032015726129
0	356074	13.108501169933	0.042435108216999
0	356490	13.117516444524	0.052561493920001
0	356527	13.118234819971	0.053002091589001
0	356682	13.121035125686	0.053302397302
0	356733	13.122029196768	0.054018690606
0	357077	13.129677518231	0.063055900959
0	357179	13.131442040654	0.06509820116
0	357544	13.139067016257	0.073556510097001
0	357577	13.139710709298	0.073922425359999
0	357653	13.141213659618	0.073758709012001
0	358191	13.151899740471	0.085000345421001
0	532648	17.182775328563	0.031694250633002
0	533097	17.191889724024	0.041889727174002
0	533572	17.20148040969	0.052561493919999
0	533611	17.202198785137	0.053009599096999
0	533732	17.204693269511	0.053071651041002
0	533785	17.205704796514	0.053812907773999
0	534147	17.213540872837	0.063000335447001
0	534181	17.214129046978	0.063858779857998
0	534613	17.223015966407	0.073556510097003
0	534641	17.223659659448	0.073929932868001
0	534700	17.225110057212	0.073758709012001
0	535198	17.235703459308	0.084892651647998
0	708916	21.377361971712	0.031694250632999
0	709308	21.386380977665	0.041889727173999
0	709718	21.395876273823	0.052561493919999
0	709749	21.39659464927	0.052985751720001
0	709884	21.399327607414	0.053071651041002
0	709966	21.400965371537	0.054415297517
0	710282	21.408445905373	0.063660537235002
0	710317	21.409034079514	0.063954593729001
0	710682	21.417459525294	0.073556510096999
0	710717	21.418103218335	0.073906085491
0	710858	21.420834033156	0.07487219443
0	711242	21.429622375957	0.084248772525001
0	902248	25.724765344146	0.021156447468002
0	902644	25.732864458007	0.031608502505001
0	902686	25.733582833454	0.032032760305
0	903355	25.746954307824	0.043051293498998
0	903726	25.754787101275	0.052942910479
0	903748	25.755254200316	0.052821774226
0	903786	25.75573509556	0.053596787116998
0	904384	25.768391058714	0.064193926742
0	905260	25.78669226519	0.083965721452998
0	905300	25.787335958231	0.084315296847002
0	905364	25.788623344313	0.085308565281998
0	905430	25.790025624439	0.08553437482
0	1094528	29.569284060609	0.021156447468002
0	1094919	29.577311873222	0.031608502504998
0	1094956	29.578030248669	0.032023847649
0	1095592	29.590911526963	0.042480883518998
0	1095965	29.599094259594	0.052784828271001
0	1095993	29.599701615531	0.052786123602001
0	1096001	29.599737952635	0.053125491008998
0	1096617	29.612729708779	0.063996035032002
0	1097436	29.631747222701	0.084528700468997
0	1097475	29.632365448713	0.084843896178
0	1097515	29.633009141754	0.085184558915998
0	1097590	29.634547890595	0.085511186544998
0	1330418	35.324214110081	0.011021562713999
0	1331298	35.342988267306	0.032081434226995
0	1331335	35.343576441447	0.032383894082002
0	1331423	35.345252635923	0.031488659983999
0	1331460	35.345865169459	0.032386907806
0	1332300	35.365400455089	0.053350764866003
0	1332322	35.36604414813	0.053708743621002
0	1332352	35.366687841171	0.054066722376
0	1332372	35.366989043053	0.052939352827998
0	1332387	35.367331534212	0.054424701130998
0	1332695	35.374375538539	0.062897276888002
0	1333153	35.385430439502	0.073666463565004
0	1468963	38.670439011167	0.010612533535998
0	1469796	38.689300769002	0.031974291371
0	1469829	38.689888943143	0.032249965511994
0	1469918	38.691940137615	0.031488659983999
0	1469963	38.692552671151	0.032413693519999
0	1470743	38.711712956785	0.053136479153999
0	1470769	38.712356649826	0.053467672194998
0	1470792	38.713000342867	0.053798865235997
0	1470826	38.713644035908	0.054130058276996
0	1470844	38.713864044703	0.053100067072002
0	1471109	38.720848754519	0.062897276887995
0	1471581	38.732044914801	0.07378093717
0	1619023	42.579418015625	0.011125583766002
0	1619947	42.597800981295	0.031459768948004
0	1619977	42.598389155436	0.031804040649995
0	1620097	42.600268896721	0.031488659983999
0	1620170	42.601493963793	0.032957629494994
0	1621097	42.620213169078	0.052896346974997
0	1621133	42.620856862119	0.053296137577
0	1621161	42.62150055516	0.053695928178996
0	1621185	42.621886045979	0.052861906802995
0	1621198	42.622144248201	0.054095718780999
0	1621553	42.629726294113	0.062897276888002
0	1622082	42.640650351227	0.073577431563002
0	1766661	46.181704345263	0.021250579762999
0	1766689	46.182457889485	0.021398063379003
0	1766727	46.183182897732	0.021517011019995
0	1766758	46.183826590773	0.021554643455005
0	1766773	46.184034455392	0.021156447468002
0	1766825	46.184752830839	0.021571792612001
0	1767115	46.193240386611	0.031877530202003
0	1767136	46.19357741952	0.031608502504994
0	1767485	46.203384775974	0.042627980171005
0	1768358	46.227088779122	0.063301680289001
0	1768369	46.227272821407	0.064697843786
0	1768396	46.227807154569	0.064323086039003
0	1910584	50.03317217707	0.021269041088999
0	1910642	50.033925721292	0.021534780433001
0	1910671	50.034454884621	0.021576138884001
0	1910704	50.035010802961	0.021156447467995
0	1910715	50.035098577662	0.021732027047001
0	1910750	50.035729178408	0.021630920475999
0	1911154	50.044731150681	0.031608502505001
0	1911167	50.044882869721	0.032248026422998
0	1911579	50.054775018591	0.042627980171005
0	1912544	50.078899910111	0.064313847301001
0	1912551	50.078913002406	0.065302549351998
0	1912580	50.079618285558	0.065276125186998
0	2069576	53.733057073801	0.021250579762999
0	2069617	53.733810618023	0.021626765495
0	2069675	53.734624713178	0.021308785180004
0	2069713	53.735343088625	0.021838481382005
0	2070204	53.744358392768	0.031608502505001
0	2070751	53.7548583285	0.042863155216999
0	2071701	53.772497980974	0.059936769956003
0	2071743	53.773141674015	0.060203104507004
0	2072011	53.777832260283	0.063950294549997
0	2072265	53.782555469853	0.070182938080002
0	2074057	53.816525121273	0.10283183478499
0	2076430	53.862599662347	0.149472413594
0	2195593	56.553162956883	0.031898725565
0	2196394	56.57427089554	0.052451108665998
0	2219600	57.174878710362	0.654447812378
0	2219629	57.175477435059	0.654768759297
0	2219653	57.176076159756	0.655089706216
0	2219960	57.183484065596	0.664164278724
0	2219988	57.184072239737	0.664196897309
0	2220118	57.187105380705	0.665563371609
0	2220144	57.187749073746	0.665651509094
0	2220836	57.205532008685	0.685378888479
0	2221019	57.209993955855	0.690396391205
0	2251786	58.039957885155	1.517582542725

