version 2
run Net10-0-20181216-16:52:15-13672
attr configname Net10
attr datetime 20181216-16:52:15
attr experiment Net10
attr inifile omnetpp.ini
attr iterationvars ""
attr iterationvarsf ""
attr measurement ""
attr network mogp.networks.Net10
attr processid 13672
attr repetition 0
attr replication #0
attr resultdir results
attr runnumber 0
attr seedset 0
param **.eventStorage.packetLength "1024 byte"
param **.node[*].operator[*].packetLength "1024 byte"

vector 0 Net10.eventStorage "End-to-End Delay" ETV
0	98	5	0
0	105	5.00025	0
0	112	5.0005	0
0	119	5.00075	0
0	126	5.001	0
0	133	5.00125	0
0	140	5.0015	0
0	147	5.00175	0
0	154	5.002	0
0	161	5.00225	0
0	168	5.0025	0
0	175	5.00275	0
0	182	5.003	0
0	189	5.00325	0
0	196	5.0035	0
0	203	5.00375	0
0	210	5.004	0
0	217	5.00425	0
0	224	5.0045	0
0	231	5.00475	0
0	238	5.005	0
0	210878	12.026720663531	0.021220663531
0	210909	12.027439038978	0.021439038978
0	210938	12.028157414425	0.021907414425
0	210969	12.028875789872	0.022125789872
0	211000	12.029594165319	0.022594165319001
0	211029	12.030312540766	0.023062540766
0	211058	12.031030916213	0.023280916213
0	211078	12.03174929166	0.023749291660002
0	211105	12.032467667107	0.023967667107
0	211133	12.033186042554	0.024436042554001
0	211157	12.033904418001	0.024904418001
0	211188	12.034622793448	0.025122793448
0	211214	12.035341168895	0.025591168895
0	211241	12.036059544342	0.025809544342
0	211270	12.036777919789	0.026277919788999
0	211659	12.047901463645	0.042151463645
0	211717	12.049500408623	0.043000408623001
0	211722	12.049651463645	0.042151463645
0	211780	12.051252696707	0.043002696706999
0	211785	12.051401463645	0.042151463645
0	211852	12.053443056812	0.043443056812

