version 2
run Net10-0-20190313-14:02:20-20236
attr configname Net10
attr datetime 20190313-14:02:20
attr experiment Net10
attr inifile omnetpp.ini
attr iterationvars ""
attr iterationvarsf ""
attr measurement ""
attr network mogp.networks.Net10
attr processid 20236
attr repetition 0
attr replication #0
attr resultdir results
attr runnumber 0
attr seedset 0
param **.eventStorage.packetLength "1024 byte"
param **.node[*].operator[*].packetLength "1024 byte"

vector 0 Net10.eventStorage "End-to-End Delay" ETV
0	128	5	0
0	129	5	0
0	130	5	0
0	131	5	0
0	132	5	0
0	133	5	0
0	37309	6.010706300698	0.010562416406
0	37336	6.011203336239	0.011059451947
0	37350	6.011586447255	0.011442562963
0	37359	6.01170037178	0.011556487488
0	37383	6.012197407321	0.012053523029
0	37392	6.012462591297	0.012318707005
0	74313	7.010910351635	0.010621541407001
0	74335	7.011313171219	0.011024360991001
0	74344	7.011407387176	0.011118576948
0	74357	7.01175124324	0.011462433012
0	74367	7.011904422717	0.011615612489
0	74386	7.012401458258	0.01211264803
0	111044	8.011407888612	0.010973096133
0	111070	8.011904924153	0.011470131674001
0	111092	8.012401959694	0.011967167214999
0	111114	8.012898995235	0.012464202756
0	111825	8.030929731075	0.030494938596
0	111866	8.031805875117	0.031371082638
0	147113	9.0108728677	0.010438072021
0	147118	9.01093183122	0.010497035541
0	147135	9.011310939721	0.010876144041999
0	147143	9.011428866761	0.010994071081999
0	147159	9.011925902302	0.011491106623
0	147174	9.012422937843	0.011988142164
0	183651	10.011310938721	0.010727995893999
0	183669	10.011749010742	0.011166067914999
0	183680	10.011935526445	0.011352583617999
0	183698	10.012432561986	0.011849619158999
0	183719	10.012929597527	0.0123466547
0	183740	10.013426633068	0.012843690241001
0	219503	11.011327778495	0.010595584237
0	219529	11.011824814036	0.011092619778001
0	219553	11.012321849577	0.011589655319
0	219575	11.012818885118	0.01208669086
0	221023	11.051243828241	0.050511633983001
0	221042	11.051681900262	0.050949706004001
0	254457	12.011229230799	0.010497035541
0	254477	12.01172626634	0.010994071082001
0	254497	12.012223301881	0.011491106623
0	254518	12.012720337422	0.011988142164
0	256766	12.072870129118	0.072137933860001
0	256798	12.07374627316	0.073014077902
0	290047	13.011305312196	0.010573113737999
0	290059	13.011574754388	0.010842555930001
0	290071	13.011743384217	0.011011185759001
0	290083	13.012071789929	0.011339591471
0	290102	13.01256882547	0.011836627012
0	290123	13.013065861011	0.012333662553001
0	324714	14.011229235799	0.010497035541
0	324735	14.01172627134	0.010994071082001
0	324756	14.012223306881	0.011491106623
0	324777	14.012720342422	0.011988142164
0	326769	14.064973437964	0.064241237706
0	326804	14.065849582006	0.065117381747999
0	359815	15.011229236799	0.010497035541
0	359825	15.011300652992	0.010568451734001
0	359839	15.01172627234	0.010994071081999
0	359844	15.011738725013	0.011006523755
0	359870	15.012223307881	0.011491106623
0	359886	15.012720343422	0.011988142164
0	393586	16.011170275279	0.010438072021
0	393594	16.01126115806	0.010528954801998
0	393606	16.0116083473	0.010876144042001
0	393615	16.011758193601	0.011025990343001
0	393630	16.012255229142	0.011523025883999
0	393645	16.012752264683	0.012020061424998
0	428064	17.011170275279	0.010438072021
0	428069	17.011229238799	0.010497035541
0	428090	17.01172627434	0.010994071081999
0	428108	17.012046419321	0.011314216062999
0	428116	17.012223309881	0.011491106623001
0	428140	17.012720345422	0.011988142164
0	461882	18.011229239049	0.010497035541
0	461889	18.01129338692	0.010561183411998
0	461907	18.01172627459	0.010994071081999
0	461912	18.011731458941	0.010999255432999
0	461931	18.012223310131	0.011491106622998
0	461949	18.012720345672	0.011988142164
0	495450	19.011170277229	0.010438072021
0	495456	19.011291775941	0.010559570733001
0	495467	19.01160834925	0.010876144042001
0	495483	19.011788811482	0.011056606274
0	495498	19.012285847023	0.011553641814999
0	495515	19.012782882564	0.012050677356001
0	528699	20.011229240749	0.010497035541
0	528720	20.01172627629	0.010994071081999
0	528739	20.012223311831	0.011491106623001
0	528760	20.012720347372	0.011988142164
0	530868	20.069277135393	0.068544930185002
0	530899	20.070153279435	0.069421074227002
0	562325	21.011170279829	0.010438072021
0	562333	21.011416862816	0.010684655007999
0	562353	21.011913898357	0.011181690549002
0	562361	21.012046423871	0.011314216062999
0	562375	21.012410933898	0.01167872609
0	562398	21.012907969439	0.012175761630999
0	595947	22.011332881355	0.010438072021
0	595965	22.011770953376	0.010876144042001
0	595976	22.012116096683	0.011221287348999
0	595997	22.012613132224	0.011718322890001
0	596018	22.013110167765	0.012215358431
0	596034	22.013607203306	0.012712393971999
0	628625	23.011555777901	0.010497035541
0	628650	23.012052813442	0.010994071082003
0	628670	23.012549848983	0.011491106623001
0	628692	23.013046884524	0.011988142164
0	629680	23.046216870895	0.045158128535
0	629705	23.047093014937	0.046034272577003
0	661604	24.011721065957	0.010497035541
0	661623	24.012218101498	0.010994071081999
0	661646	24.012715137039	0.011491106622998
0	661667	24.01321217258	0.011988142164
0	663393	24.060996525618	0.059772495201997
0	663414	24.061434597639	0.060210567222999
0	694512	25.011721067957	0.010497035540997
0	694523	25.011933509791	0.010709477374998
0	694535	25.012218103498	0.010994071081999
0	694547	25.012371581812	0.011147549396
0	694559	25.012715139039	0.011491106622998
0	694578	25.01321217458	0.011988142163997
0	726866	26.011662105087	0.010438072021
0	726872	26.011721068607	0.010497035541
0	726887	26.012100177108	0.010876144042001
0	726892	26.012218104148	0.010994071082003
0	726911	26.012715139689	0.011491106623001
0	726932	26.01321217523	0.011988142164
0	758687	27.011831594112	0.010438072021
0	758703	27.012269666133	0.010876144042001
0	758711	27.012353276071	0.01095975398
0	758732	27.012850311612	0.011456789520999
0	758750	27.013347347153	0.011953825062001
0	758768	27.013844382694	0.012450860603
0	790412	28.011831594462	0.010438072021
0	790437	28.012371808551	0.010978286109999
0	790451	28.012707738504	0.011314216062999
0	790460	28.012868844092	0.011475321651002
0	790483	28.013365879633	0.011972357192001
0	790503	28.013862915174	0.012469392732999
0	822144	29.012194973292	0.010629037658003
0	822151	29.012269665883	0.010703730249002
0	822164	29.012692008833	0.011126073199001
0	822172	29.012707737904	0.01114180227
0	822187	29.013189044374	0.01162310874
0	822202	29.013686079915	0.012120144281003
0	853271	30.012177917948	0.010438072021
0	853276	30.012236881468	0.010497035541
0	853287	30.012615989969	0.010876144042001
0	853296	30.012733917009	0.010994071082003
0	853317	30.01323095255	0.011491106623001
0	853340	30.013727988091	0.011988142164
0	884167	31.012353353744	0.010438072021
0	884182	31.012733914209	0.010818632486
0	884187	31.012791425765	0.010876144041998
0	884204	31.01323094975	0.011315668026999
0	884219	31.013727985291	0.011812703567998
0	884242	31.014225020832	0.012309739109
0	914768	32.012589305914	0.010497035541
0	914789	32.013086341455	0.010994071082003
0	914809	32.013583376996	0.011491106622998
0	914828	32.014080412537	0.011988142164
0	916302	32.066222371361	0.064130100988002
0	916327	32.067098515403	0.065006245029998
0	945585	33.012589308314	0.010497035541
0	945592	33.012611273957	0.010519001184001
0	945604	33.013049345978	0.010957073204999
0	945615	33.013086343855	0.010994071082003
0	945630	33.013583379396	0.011491106622998
0	945649	33.014080414937	0.011988142164
0	975436	34.012710523974	0.010438072021003
0	975442	34.012769487494	0.010497035541
0	975456	34.013148595995	0.010876144042001
0	975467	34.013266523035	0.010994071082003
0	975489	34.013763558576	0.011491106623005
0	975505	34.014260594117	0.011988142164
0	1005837	35.012742513171	0.010457073204996
0	1005853	35.013180585192	0.010895145225994
0	1005876	35.013618657213	0.011333217247
0	1042773	36.013017698516	0.010588374258006
0	1042795	36.013455770537	0.011026446279004
0	1042815	36.013893842558	0.011464518300002
0	1075154	37.013012322215	0.010438072020996
0	1075169	37.013450394236	0.010876144042001
0	1075189	37.013888466257	0.011314216062999
0	1104642	38.013158304466	0.010438072020996
0	1104658	38.013596376487	0.010876144042001
0	1104674	38.014034448508	0.011314216062999
0	1134029	39.013158307666	0.010438072020996
0	1134045	39.013596379687	0.010876144042001
0	1134059	39.014034451708	0.011314216062999
0	1163154	40.013306454814	0.010438072021003
0	1163168	40.013744526835	0.010876144042001
0	1163182	40.014182598856	0.011314216062999
0	1191899	41.014244647739	0.011227013514997
0	1191914	41.01468271976	0.011665085535995
0	1191928	41.015120791781	0.012103157557
0	1220251	42.013743403326	0.010725768101999
0	1220265	42.014181475347	0.011163840123004
0	1220279	42.014619547368	0.011601912144002
0	1248398	43.013742267314	0.010724628890003
0	1248413	43.014180339335	0.011162700911001
0	1248424	43.014618411356	0.011600772931999
0	1276585	44.013455712245	0.010438072020996
0	1276601	44.013893784266	0.010876144041994
0	1276622	44.014331856287	0.011314216062999
0	1304456	45.013455713245	0.010438072021003
0	1304470	45.013893785266	0.010876144042001
0	1304481	45.014331857287	0.011314216062999
0	1332206	46.013583709746	0.010566066522003
0	1332220	46.014021781767	0.011004138543001
0	1332239	46.014459853788	0.011442210563999
0	1359876	47.013455715245	0.010438072021003
0	1359891	47.013893787266	0.010876144042001
0	1359903	47.014331859287	0.011314216062999
0	1387193	48.013455715495	0.010438072021003
0	1387209	48.013893787516	0.010876144042001
0	1387226	48.014331859537	0.011314216063006
0	1414701	49.013455717195	0.010438072021003
0	1414715	49.013893789216	0.010876144042001
0	1414733	49.014331861237	0.011314216062999
0	1443015	50.014175647914	0.011038002369006
0	1443032	50.014613719935	0.011476074390004
0	1443049	50.015051791956	0.011914146411002
0	1443068	50.015489863977	0.012352218432007
0	1443083	50.015927935998	0.012790290453005
0	1443097	50.016366008019	0.013228362474003
0	1472628	51.014164091224	0.010882561387
0	1472643	51.014602163245	0.011320633408005
0	1472660	51.015040235266	0.011758705429003
0	1472674	51.015478307287	0.012196777450001
0	1472685	51.015916379308	0.012634849470999
0	1472696	51.016354451329	0.013072921492004

