version 2
run Net10-0-20190227-19:29:25-9888
attr configname Net10
attr datetime 20190227-19:29:25
attr experiment Net10
attr inifile omnetpp.ini
attr iterationvars ""
attr iterationvarsf ""
attr measurement ""
attr network mogp.networks.Net10
attr processid 9888
attr repetition 0
attr replication #0
attr resultdir results
attr runnumber 0
attr seedset 0
param **.eventStorage.packetLength "1024 byte"
param **.node[*].operator[*].packetLength "1024 byte"

vector 0 Net10.eventStorage "End-to-End Delay" ETV
0	98	5	0
0	105	5.000833333333	0
0	112	5.001666666666	0
0	119	5.002499999999	0
0	126	5.003333333332	0
0	133	5.004166666665	0
0	140	5.004999999998	0
0	147	5.005833333331	0
0	154	5.006666666664	0
0	161	5.007499999997	0
0	168	5.00833333333	0
0	175	5.009166666663	0
0	45526	9.024779198597	0.010612533535999
0	45553	9.026445865263	0.010612533535999
0	45563	9.027279198596	0.010612533535999
0	45609	9.031421505866	0.010588174141001
0	45846	9.046488658378	0.031488659983999
0	45876	9.048959767341	0.031459768948
0	45943	9.053365447472	0.031698782414001
0	45960	9.054198780805	0.031698782414001
0	45970	9.055032114138	0.031698782413999
0	46273	9.081230608614	0.062897276888
0	46294	9.082063941947	0.062897276888
0	46321	9.082956278391	0.062956279999
0	90933	12.347797215087	0.010612533536001
0	90967	12.348409748623	0.010684526532
0	90993	12.349022282159	0.011026789798001
0	91021	12.349935017852	0.010588174140999
0	91726	12.368943611805	0.031488659983999
0	91768	12.369725531579	0.031459768948
0	91870	12.372144813593	0.032527699612
0	91894	12.372732987734	0.032845603483
0	91915	12.373321161875	0.033163507353999
0	92848	12.401433309789	0.062897276888
0	92876	12.402151685236	0.063345382065
0	92912	12.40304402168	0.063967448239
0	135804	13.649418835407	0.010612533535999
0	135836	13.650031368943	0.010684526532
0	135865	13.650643902479	0.011026789798001
0	136602	13.670565232125	0.031488659983999
0	137841	13.703054930109	0.062897276888
0	137890	13.703947266553	0.063519343062
0	137919	13.704491681003	0.063793487241998
0	138262	13.713405906689	0.072437442658
0	139054	13.733689327355	0.093801944403999
0	142089	13.8139836848	0.172744950499
0	142169	13.815748207223	0.174239202652
0	142222	13.816924555505	0.175145280664
0	184626	14.951040455727	0.010612533535999
0	184653	14.951652989263	0.010684526532
0	184679	14.952265522799	0.011026789797999
0	184717	14.953178258492	0.010588174141001
0	185441	14.972186852445	0.031488659984001
0	185470	14.972968772219	0.031459768948
0	185571	14.975388054233	0.032527699612
0	185645	14.977152576656	0.034021951765
0	185685	14.978328924938	0.034928029776999
0	186605	15.004676550429	0.062897276888
0	186636	15.005527403599	0.063477859788001
0	186661	15.006113301323	0.063793487242
0	228363	16.252932346317	0.010612533536001
0	228398	16.253544879853	0.010684526532
0	228419	16.254157413389	0.011026789797999
0	229166	16.274078743035	0.031488659983999
0	230273	16.306568441019	0.062897276887998
0	230298	16.307286816466	0.063345382065002
0	230335	16.308005191913	0.063793487242002
0	236386	16.486793876912	0.242311901971
0	237099	16.507077297578	0.263676403717
0	243728	16.693243000403	0.448490755192
0	243774	16.695007522826	0.449985007345
0	243797	16.695595696967	0.450302911216
0	274079	17.554553966637	0.010612533535998
0	274100	17.555166500173	0.010684526532
0	274127	17.555779033709	0.011026789798002
0	274169	17.556691769402	0.010588174141002
0	274897	17.575700363355	0.031488659983999
0	274923	17.576482283129	0.031459768948
0	275000	17.578390551816	0.032016686285001
0	275066	17.580155074239	0.033510938437999
0	275110	17.581331422521	0.03441701645
0	276026	17.608259061034	0.062966276583001
0	276055	17.608908436786	0.063345382064998
0	276079	17.609626812233	0.063793487241998
0	318436	18.856312895611	0.010749842190002
0	318468	18.856925429147	0.010821835186
0	318490	18.857537962683	0.011164098451999
0	319308	18.877328661013	0.031495337321999
0	320451	18.909811681659	0.062897276888002
0	320485	18.910662534829	0.063477859788001
0	320513	18.911248432553	0.063793487241998
0	324633	19.024360277231	0.17663506165
0	325332	19.044716588749	0.198072454248
0	330244	19.181402772878	0.333407287027
0	330283	19.18257912116	0.334313365039
0	330308	19.183167295301	0.33463126891
0	454049	22.860499907277	0.010612533536001
0	454071	22.861112440813	0.010684526532
0	454090	22.861724974349	0.011026789797999
0	454561	22.881646303995	0.031488659983999
0	455573	22.914136001979	0.062897276887998
0	455595	22.914854377426	0.063345382065002
0	455629	22.915572752873	0.063793487242002
0	462901	23.133160264436	0.281110728535
0	463598	23.153443685102	0.302475230281
0	472039	23.393721408899	0.541401602728
0	472085	23.394897757181	0.54230768074
0	472109	23.395485931322	0.542625584611
0	591067	26.718906004805	0.010612533536001
0	591093	26.719518538341	0.010712246560001
0	591118	26.720131071877	0.01106836984
0	591641	26.740038541509	0.031488659983999
0	592466	26.772472799437	0.062897276888002
0	592484	26.773191174884	0.063359242078999
0	592504	26.773909550331	0.063821207269999
0	593490	26.819835780224	0.109491026907
0	593938	26.84011920089	0.130800088597
0	599759	27.05275274006	0.342151576487
0	599823	27.054517262483	0.343659688654
0	599894	27.056281784906	0.345167800821
0	722331	30.518136767957	0.010612533536001
0	722367	30.518749301493	0.010712246560001
0	722393	30.519361835029	0.01106836984
0	723139	30.539269304661	0.031488659983999
0	724397	30.571703562589	0.062897276888002
0	724435	30.572554415759	0.063491719802002
0	724459	30.573140313483	0.063821207269999
0	727758	30.658848398531	0.149272882062
0	728572	30.679131819197	0.170581943752
0	733291	30.857651258189	0.347819331464
0	733306	30.85823943233	0.348151095349
0	733355	30.860003954753	0.349659207516
0	857194	34.609819749035	0.010612533535998
0	857226	34.610432282571	0.010725067071995
0	857253	34.611044816107	0.011087600608001
0	857278	34.61179538964	0.010588174140999
0	858027	34.631432282571	0.031975067071997
0	858039	34.63168150687	0.031474291371005
0	858168	34.634559912063	0.033102696564001
0	858216	34.635736260345	0.034029044846001
0	858233	34.636324434486	0.034367218987001
0	859256	34.663354492387	0.062897276888002
0	859292	34.664072867834	0.063365652335001
0	859327	34.664791243281	0.063834027782001
0	928999	36.501926698484	0.021013600726
0	929022	36.502514872625	0.021307657219999
0	929561	36.514279976636	0.032190408289999
0	929602	36.514892510172	0.032214706531995
0	929884	36.521840089159	0.042103461989001
0	930429	36.534116830945	0.052615497893001
0	930449	36.534670817165	0.052875366466004
0	930460	36.534843913684	0.052460227691
0	930839	36.543441986328	0.063411241510998
0	930878	36.544085679369	0.063760816904995
0	930957	36.546144137959	0.063172216672001
0	931793	36.564918993506	0.084300013395001
0	1092063	40.298830725412	0.021013600725993
0	1092096	40.299418899553	0.021338616971995
0	1092622	40.310453857509	0.031584101242998
0	1092649	40.311066391045	0.031670318988994
0	1093004	40.318867955095	0.042103461989001
0	1093559	40.330794549142	0.052451108665998
0	1093614	40.331887730977	0.053281132606003
0	1093647	40.332731556181	0.053598642020006
0	1093992	40.34034601328	0.063318362278999
0	1094032	40.340989706321	0.063698897424999
0	1094127	40.343267945232	0.063608715280999
0	1094917	40.361823364733	0.084269397942002
0	1241678	43.816959383344	0.021013600726
0	1241701	43.817547557485	0.021323997088999
0	1242174	43.828640994973	0.031584101242998
0	1242207	43.829253528509	0.031641079223
0	1242506	43.836938133495	0.042103461988994
0	1243013	43.84895244684	0.052451108666006
0	1243050	43.849670822287	0.052891706335004
0	1243135	43.851390243277	0.054055571769005
0	1243411	43.858211838375	0.063099389091001
0	1243432	43.858855531416	0.063465304353997
0	1243546	43.86111030574	0.063220078675997
0	1244359	43.880196776426	0.084528771586001
0	1419812	48.069271697592	0.021013600726
0	1419832	48.069859871733	0.021331504597001
0	1420339	48.080923279189	0.031584101243006
0	1420379	48.081535812725	0.031656094239004
0	1420724	48.089280477775	0.042103461989001
0	1421284	48.101249746072	0.052451108665998
0	1421314	48.101968121519	0.052899213842998
0	1421332	48.102135009139	0.052525560923002
0	1421681	48.110546675147	0.063099389091001
0	1421715	48.111190368188	0.063472811861999
0	1421825	48.113407604972	0.063257616215999
0	1422572	48.132551901346	0.084564074749998
0	1597483	52.126839265102	0.021013600726
0	1597506	52.127427439243	0.021331504597001
0	1598040	52.138490846699	0.031584101242998
0	1598079	52.139103380235	0.031656094239004
0	1598457	52.146848045285	0.042103461989001
0	1599050	52.158817313582	0.052451108665998
0	1599112	52.159697124087	0.053060648900995
0	1599132	52.160256454291	0.053079438565
0	1599496	52.168114242657	0.063099389091001
0	1599539	52.169057841026	0.063772717189998
0	1599634	52.170975172482	0.063257616216006
0	1600443	52.189785562306	0.084230168200001
0	1776171	56.238190612342	0.021013600726
0	1776193	56.238778786483	0.021331504597001
0	1776738	56.249842193939	0.031584101242998
0	1776781	56.250454727475	0.031656094239004
0	1777178	56.258638130954	0.042542200417998
0	1777745	56.270168660822	0.052451108666006
0	1777794	56.271048471327	0.053060648901003
0	1777816	56.271607801531	0.053079438565
0	1778181	56.279465589897	0.063099389091001
0	1778245	56.280409188266	0.063772717189998
0	1778320	56.282326519722	0.063257616215999
0	1779145	56.301136909546	0.084230168199994
0	1940786	59.527068398392	0.021013600726
0	1940860	59.527975688751	0.021703499780998
0	1941440	59.538508464125	0.031584101243006
0	1941478	59.539120997661	0.031761852171002
0	1941901	59.547347326501	0.042162094051001
0	1942587	59.559280036527	0.052790456253
0	1942613	59.559705463112	0.052998491533998
0	1942642	59.560236789739	0.053095035553
0	1943113	59.568502012845	0.063099389091001
0	1943151	59.569145705886	0.063525690828001
0	1943257	59.57109854784	0.063522011046004
0	1944351	59.590518804235	0.084681397872998
0	2167683	63.821633608912	0.021013600726
0	2167714	63.822221783053	0.021384383562996
0	2168260	63.833073674645	0.031584101242998
0	2168302	63.833686208181	0.031761852171002
0	2168739	63.841853904959	0.042103461988994
0	2169444	63.856294903797	0.054587939091
0	2169782	63.863303804093	0.063335969819001
0	2169868	63.865031651462	0.064846425883999
0	2170086	63.870108162422	0.069053371628002
0	2170120	63.870826537869	0.069554355771004
0	2170636	63.882266021322	0.080124274008
0	2170865	63.886789905116	0.086387288234
0	2372356	67.825111863376	0.021013600725993
0	2372403	67.825700037517	0.021384383563003
0	2373592	67.845332159423	0.042103461989001
0	2374994	67.869117203321	0.065453723278992
0	2376125	67.888562269219	0.084681397872998
0	2377836	67.917097335029	0.112129507163
0	2377911	67.918206111291	0.11280350081699
0	2378537	67.929048717452	0.12451567219401
0	2378596	67.929899570622	0.12514913406
0	2378989	67.936698408181	0.131513189011
0	2379251	67.940974246498	0.13535424472001
0	2379723	67.948584547952	0.145138459214
0	2584318	71.92503762697	0.021013600725993
0	2584343	71.925625801111	0.021357872427998
0	2584921	71.936583737243	0.031584101242998
0	2584962	71.937196270779	0.031708829900992
0	2585393	71.945151878477	0.042103461988987
0	2586051	71.956962939788	0.052451108666006
0	2586082	71.957681315235	0.052925581673989
0	2586147	71.958662009851	0.053418471412002
0	2586537	71.966397262895	0.063104943968
0	2586571	71.967040955936	0.063504734570003
0	2586691	71.969333247322	0.063601904004997
0	2587591	71.988417296456	0.084637172651
0	2796588	76.416988846033	0.021013600725993
0	2796614	76.417577020174	0.021357872427998
0	2797170	76.428534956306	0.031584101242998
0	2797217	76.429147489842	0.031708829900992
0	2797588	76.43710309754	0.042103461989001
0	2798205	76.448914158851	0.052451108665991
0	2798252	76.449765012021	0.053058059397003
0	2798257	76.449799421918	0.052604664416009
0	2798662	76.458342927081	0.063099389090993
0	2798706	76.458986620122	0.063499179693011
0	2798823	76.461072017751	0.063389455370995
0	2799793	76.480618100945	0.084886758076991
0	3011902	81.6171012953	0.021013600726008
0	3011925	81.617689469441	0.021307657220007
0	3012691	81.637014685975	0.042103461989001
0	3013184	81.649127038534	0.052451108666006
0	3013218	81.649845413981	0.052875366465997
0	3013342	81.652511134269	0.055246969107003
0	3013366	81.653123667805	0.055271267349013
0	3013554	81.658479047717	0.062979588437003
0	3013683	81.661640991904	0.063494473801001
0	3014246	81.676399942173	0.078841659363988
0	3014383	81.680387707969	0.08459413104201
0	3014492	81.682801355045	0.087596013411996

