version 2
run Net10-0-20190305-15:36:33-3760
attr configname Net10
attr datetime 20190305-15:36:33
attr experiment Net10
attr inifile omnetpp.ini
attr iterationvars ""
attr iterationvarsf ""
attr measurement ""
attr network mogp.networks.Net10
attr processid 3760
attr repetition 0
attr replication #0
attr resultdir results
attr runnumber 0
attr seedset 0
param **.eventStorage.packetLength "1024 byte"
param **.node[*].operator[*].packetLength "1024 byte"

vector 0 Net10.eventStorage "End-to-End Delay" ETV
0	175	5	0
0	176	5	0
0	177	5	0
0	178	5	0
0	179	5	0
0	180	5	0
0	181	5	0
0	182	5	0
0	183	5	0
0	184	5	0
0	185	5	0
0	186	5	0
0	16318	6.042859015014	0.042025682081
0	16341	6.043577390461	0.042744057528
0	16374	6.044295765908	0.043462432975001
0	16389	6.045043662959	0.044210330026001
0	16406	6.045762038406	0.044928705473001
0	16428	6.046480413853	0.04564708092
0	16541	6.053394007934	0.052560675001001
0	16556	6.053939235761	0.053105902828
0	16561	6.054037700975	0.053204368042
0	16915	6.074389935036	0.073556602103
0	16929	6.075248695454	0.074415362521
0	16941	6.075580150233	0.0747468173
0	32204	7.043692347947	0.042025682081
0	32234	7.044410723394	0.042744057528
0	32259	7.045129098841	0.043462432975
0	32282	7.045876995892	0.044210330026
0	32298	7.046595371339	0.044928705473
0	32312	7.047313746786	0.04564708092
0	32425	7.054227340867	0.052560675001
0	32436	7.054772568694	0.053105902828
0	32445	7.054871033908	0.053204368042
0	32803	7.075223267969	0.073556602103
0	32829	7.075876387625	0.074209721759
0	32850	7.076682571328	0.075015905462
0	48486	8.04452568088	0.042025682081
0	48516	8.045244056327	0.042744057528001
0	48545	8.045962431774	0.043462432975
0	48563	8.046710328825	0.044210330026001
0	48578	8.047428704272	0.044928705473
0	48593	8.048147079719	0.04564708092
0	48724	8.0550606738	0.052560675001001
0	48739	8.055605901627	0.053105902828001
0	48748	8.055704366841	0.053204368042001
0	49079	8.076056600902	0.073556602103
0	49092	8.076709720558	0.074209721759001
0	49101	8.077246816099	0.074746817300001
0	66114	9.045359013813	0.042025682081
0	66167	9.04607738926	0.042744057528001
0	66217	9.046795764707	0.043462432975
0	66266	9.047543661758	0.044210330026001
0	66305	9.048262037205	0.044928705473
0	66352	9.048980412652	0.04564708092
0	66689	9.055894006733	0.052560675001001
0	66721	9.05643923456	0.053105902827999
0	66730	9.056537699774	0.053204368042
0	67791	9.077033719024	0.073700387292
0	67856	9.078321105106	0.074987773374
0	67878	9.078723842073	0.075390510341
0	118214	10.035994069072	0.032422642502
0	118251	10.036491104613	0.032919678042999
0	118783	10.045826607038	0.042255180468
0	118793	10.045950648065	0.042379221495001
0	118829	10.046563181601	0.042991755031
0	118871	10.047085615733	0.043514189163
0	118901	10.047578895122	0.044007468552
0	118953	10.048455003976	0.044883577406001
0	119405	10.056368156538	0.052796729968
0	119432	10.0567366794	0.05316525283
0	119463	10.057486238413	0.053914811843001
0	119540	10.05885121192	0.055279785350001
0	170716	11.042333764199	0.038524242791
0	170746	11.04283079974	0.039021278331999
0	170901	11.046052399843	0.042242878434999
0	170943	11.046886758995	0.043077237586999
0	170985	11.047409193127	0.043599671719001
0	171253	11.053138340726	0.049328819317999
0	171320	11.054610325384	0.050800803975999
0	171355	11.055328700831	0.051519179423
0	171393	11.056397357819	0.052587836411
0	171401	11.056443385749	0.052633864341001
0	172210	11.074313021732	0.070503500324
0	172271	11.075627237795	0.071817716387001
0	217150	12.046154151621	0.042106535375
0	217230	12.047379218693	0.043331602446999
0	217263	12.047901652825	0.043854036578999
0	217737	12.056702325652	0.052654709405999
0	217790	12.057515744791	0.053468128544999
0	227613	12.248346038012	0.244298421766
0	227674	12.249340109094	0.245292492848
0	228165	12.258590007687	0.254542391441
0	228237	12.25990422375	0.255856607504
0	228289	12.260780332604	0.256732716358
0	228777	12.270839313718	0.266791697472
0	228839	12.2718333848	0.267785768554
0	266121	13.026318302594	0.022032591509999
0	266246	13.028458448971	0.024172737887
0	266284	13.029102142012	0.024816430928
0	267041	13.046175438258	0.041889727174
0	267082	13.046763612399	0.042477901314999
0	267099	13.047070706755	0.042784995670999
0	267144	13.047946850797	0.043661139713
0	268101	13.069176649716	0.064890938631999
0	268126	13.069655257883	0.065369546798999
0	268154	13.070298950924	0.06601323984
0	268947	13.088157641338	0.083871930254
0	268985	13.08903378538	0.084748074296
0	309979	14.026994469453	0.022470663530999
0	310077	14.028696543809	0.024172737887
0	310107	14.02934023685	0.024816430928
0	310849	14.046413533096	0.041889727174
0	310912	14.047351009781	0.042827203859
0	310922	14.047589881378	0.043066075456
0	310945	14.048069385228	0.043545579306
0	311869	14.069126774653	0.064602968731
0	311894	14.069691676417	0.065167870494999
0	311953	14.070868024699	0.066344218776999
0	312719	14.088395736176	0.083871930254
0	312746	14.088983910317	0.084460104394999
0	353787	15.026994469053	0.022232568292999
0	353876	15.028934638647	0.024172737887
0	353910	15.029578331688	0.024816430928
0	354688	15.046851604717	0.042089703957
0	354724	15.047439778858	0.042677878097999
0	354732	15.047546896431	0.042784995670999
0	354781	15.04834568488	0.043583784119999
0	355785	15.069775374983	0.065013474222999
0	355798	15.069929771255	0.065167870494999
0	355823	15.070573464296	0.065811563536
0	356638	15.088756366605	0.083994465844999
0	356694	15.090070582668	0.085308681908
0	396724	16.027470659129	0.022470663531003
0	396799	16.029172733485	0.024172737887
0	396835	16.029816426526	0.024816430928002
0	397648	16.047316056171	0.042316060573
0	397670	16.047665963132	0.042665967534003
0	397703	16.048419507354	0.043419511755999
0	397712	16.048492404453	0.043492408855002
0	398715	16.070446984375	0.065446988777001
0	398734	16.070609309677	0.065609314079001
0	398786	16.071734370457	0.066734374859003
0	399570	16.088871925852	0.083871930254002
0	399632	16.090173199011	0.085173203412999
0	440374	17.027708753967	0.022470663531003
0	440477	17.029410828323	0.024172737887
0	440509	17.030054521364	0.024816430928002
0	441322	17.04712781761	0.041889727174002
0	441382	17.048304165892	0.043066075456
0	441454	17.049213562297	0.043975471861
0	441516	17.050089706339	0.044851615903003
0	442440	17.069613515855	0.064375425419001
0	442498	17.070712962322	0.065474871886
0	442559	17.072000348404	0.066762257968001
0	443368	17.089470651519	0.084232561083002
0	443426	17.090646999801	0.085408909365
0	483291	18.027768857148	0.022292671874002
0	483405	18.029760906826	0.024284721552
0	483434	18.030404599867	0.024928414593003
0	484229	18.047625992812	0.042149807537999
0	484265	18.048319383636	0.042843198362
0	484295	18.048802341094	0.043326155820001
0	484305	18.049037759083	0.043561573809001
0	485290	18.070320704763	0.064844519489
0	485347	18.071314128948	0.065837943674001
0	485411	18.07260151503	0.067125329755999
0	486125	18.089577960141	0.084101774867001
0	486193	18.090754308423	0.085278123149003
0	524599	19.027696848805	0.022220663531002
0	524698	19.029648923161	0.024172737887
0	524728	19.030292616202	0.024816430928002
0	525497	19.047553984469	0.042077799195003
0	525527	19.04814215861	0.042665973336
0	525541	19.048320704763	0.042844519489002
0	525590	19.049196848805	0.043720663531001
0	526537	19.069791184104	0.06431499883
0	526581	19.07080820003	0.065332014756002
0	526664	19.072095586112	0.066619400838
0	527429	19.089553984469	0.084077799195001
0	527453	19.09014215861	0.084665973336001
0	565439	20.027572992847	0.022096807573
0	565549	20.029737097302	0.024260912028002
0	565573	20.030380790343	0.024904605069
0	566324	20.047577960141	0.042101774867
0	566336	20.047883212505	0.042407027231
0	566382	20.048636756727	0.043160571453001
0	566398	20.048754308423	0.043278123149001
0	567338	20.069879358245	0.064403172971002
0	567381	20.07073222991	0.065256044636001
0	567430	20.071908578192	0.066432392917999
0	568228	20.089577960141	0.084101774867001
0	568291	20.090754308423	0.085278123149003
0	607600	21.037235253401	0.031759068127002
0	607617	21.037411872599	0.031935687324999
0	607638	21.037827399861	0.032351214587003
0	607740	21.039685387545	0.034209202271001
0	608175	21.048722910777	0.043246725503
0	608674	21.058848142005	0.053371956731002
0	608702	21.059456744359	0.053980559085002
0	608763	21.060770960422	0.055294775148003
0	609206	21.070371957535	0.064895772261
0	609247	21.071349049719	0.065872864445002
0	609269	21.071659343617	0.066183158343001
0	609555	21.078895896294	0.073419711020001
0	648611	22.037491662057	0.031759068127002
0	648625	22.037709820753	0.031977226823003
0	648648	22.038083808517	0.032351214587003
0	648705	22.039329262665	0.033596668735001
0	649070	22.048966498921	0.043233904991002
0	649474	22.059670888844	0.053938294914001
0	649479	22.059682987133	0.053950393202999
0	649531	22.061020502669	0.055287908739
0	649880	22.070615545679	0.064882951749002
0	649913	22.071608737961	0.065876144031002
0	649926	22.071902931761	0.066170337831
0	650206	22.079433301674	0.073700707744003
0	683453	23.037715363161	0.031688651783998
0	683458	23.037810077746	0.031783366368998
0	683492	23.038402224206	0.032375512828999
0	683568	23.039647678354	0.033620966977001
0	683948	23.049185262739	0.043158551361998
0	684361	23.059310493967	0.05328378259
0	684384	23.059729595347	0.053702883970001
0	684484	23.062021423699	0.055994712322001
0	684815	23.070834309497	0.064807598119998
0	684862	23.072054370565	0.066027659187998
0	684898	23.07276538862	0.066738677242999
0	685126	23.079446422397	0.073419711019998
0	717509	24.038088809707	0.031759068126998
0	717517	24.038114976529	0.031785234948998
0	717549	24.038680956167	0.032351214586999
0	717615	24.039926410315	0.033596668735001
0	717940	24.049488292942	0.043158551361998
0	718283	24.05961352417	0.05328378259
0	718306	24.060008327308	0.053678585728001
0	718344	24.06088447135	0.05455472977
0	718675	24.0711373397	0.064807598119998
0	718716	24.072357400768	0.066027659187998
0	718737	24.072901862123	0.066572120543
0	718961	24.080164797744	0.073835056164
0	751749	25.03839183991	0.031759068126998
0	751759	25.038721037035	0.032088265252
0	751777	25.03898398637	0.032351214586999
0	751833	25.040229440518	0.033596668735001
0	752222	25.050076466983	0.043443695200001
0	752612	25.060201698211	0.053568926427999
0	752626	25.060539218851	0.053906447067998
0	752674	25.061545731833	0.05491296005
0	753054	25.071750929227	0.065118157444001
0	753097	25.072702605925	0.066069834141999
0	753113	25.073012899823	0.066380128039999
0	753342	25.080164797644	0.073532025860999
0	786545	26.034996318303	0.028060516316998
0	786584	26.035749862525	0.028814060538998
0	786738	26.039439974033	0.032504172046998
0	787128	26.049283126681	0.042347324695001
0	787150	26.049665111358	0.042729309372
0	787195	26.050597342744	0.043661540757999
0	787229	26.051185516885	0.044249714898999
0	787468	26.057859953189	0.050924151202999
0	787508	26.058854024271	0.051918222285
0	787970	26.07074865571	0.063812853723999
0	787993	26.071124880306	0.064189078319998
0	788020	26.071768573347	0.064832771361001
0	820404	27.028489411952	0.021250579762999
0	820436	27.029242956174	0.022004123984999
0	820880	27.039723478736	0.032484646547001
0	821263	27.049592508097	0.042353675908
0	821281	27.049968141561	0.042729309372
0	821287	27.050052728266	0.042813896077
0	821298	27.050346052319	0.04310722013
0	821339	27.051229076548	0.043990244359001
0	821365	27.051817250689	0.044578418499999
0	822013	27.070475722291	0.063236890102001
0	822049	27.071427910509	0.064189078319998
0	822092	27.072715296591	0.065476464402
0	854959	28.028792442155	0.021250579762999
0	854994	28.029545986377	0.022004123984999
0	855432	28.040026508939	0.032484646547001
0	855823	28.049668568603	0.042126706211
0	855842	28.050034271275	0.042492408883
0	855860	28.050556315602	0.043014453209999
0	855868	28.050662639685	0.043120777293002
0	855887	28.051210619557	0.043668757165001
0	855943	28.052386967839	0.044845105446999
0	856564	28.070827341677	0.063285479285
0	856607	28.072393672962	0.064851810570001
0	856637	28.073037366003	0.065495503611
0	890071	29.028792443155	0.021250579762999
0	890111	29.029545987377	0.022004123984999
0	890526	29.040026509939	0.032484646547001
0	890887	29.049668569603	0.042126706211
0	890923	29.050662640685	0.043120777293002
0	893466	29.114591048818	0.107049185426
0	893506	29.11522595753	0.107684094138
0	893551	29.116402305812	0.10886044242
0	893596	29.117578654094	0.110036790702
0	894318	29.136050817766	0.128508954374
0	894342	29.136694510807	0.129152647415
0	896789	29.201099382116	0.193557518724
0	927718	30.028792444155	0.021250579762999
0	927767	30.029545988377	0.022004123984999
0	928201	30.040026510939	0.032484646547001
0	928580	30.049668570603	0.042126706211
0	928617	30.050422114825	0.042880250433001
0	931332	30.118604307505	0.111062443113
0	931455	30.121591912781	0.114050048389
0	931564	30.123944609345	0.116402744953
0	931583	30.124532783486	0.116990919094
0	932215	30.140064076453	0.132522212061
0	932235	30.140707769494	0.133165905102
0	935255	30.221581516751	0.214039652359
0	966177	31.039125965635	0.031584101242998
0	974447	31.251636145595	0.244094281203
0	975009	31.265808883482	0.25826701909
0	975030	31.266452576523	0.258910712131
0	975054	31.267096269564	0.259554405172
0	975283	31.273095914543	0.265554050151
0	975309	31.273684088684	0.266142224292
0	976059	31.292276719827	0.284734855435
0	976175	31.295508102326	0.287966237934
0	977022	31.317157149084	0.309615284692
0	977234	31.322922305981	0.315380441589
0	977292	31.324328635235	0.316786770843
0	1005760	32.039125965635	0.031584101243006
0	1018586	32.37798962561	0.370447761218
0	1019094	32.392162363497	0.384620499105
0	1019114	32.392806056538	0.385264192146
0	1019144	32.393449749579	0.385907885187
0	1019355	32.399449394558	0.391907530166
0	1019384	32.400037568699	0.392495704307
0	1019956	32.416865677419	0.409323813027
0	1020150	32.42227529441	0.414733430018
0	1020896	32.443510629099	0.43596876470701
0	1021039	32.447153070404	0.439611206012
0	1021116	32.448917592827	0.44137572843501
0	1044023	33.039125965635	0.031584101243006
0	1062251	33.533163638534	0.525621774142
0	1062772	33.54680372118	0.539261856788
0	1062798	33.547447414221	0.539905549829
0	1062818	33.548091107262	0.54054924287
0	1063093	33.554623407482	0.54708154309
0	1063116	33.555211581623	0.547669717231
0	1063663	33.569098819638	0.561556955246
0	1063978	33.577035595265	0.56949373087301
0	1064779	33.598209864341	0.59066799994901
0	1064802	33.598853557382	0.59131169299
0	1064846	33.599974386764	0.592432522372
0	1080687	34.039125965635	0.031584101243006
0	1097284	34.469536871006	0.461995006614
0	1097829	34.483709608893	0.47616774450101
0	1097848	34.484353301934	0.476811437542
0	1097875	34.484996994975	0.477455130583
0	1098089	34.490996639954	0.483454775562
0	1098118	34.491584814095	0.484042949703
0	1098728	34.507824748674	0.500282884282
0	1098926	34.513408827737	0.50586696334501
0	1099758	34.535529464123	0.52798759973101
0	1099857	34.538112141659	0.530570277267
0	1099927	34.539876664082	0.53233479969001
0	1119280	35.039125966635	0.031584101242998
0	1137526	35.538249285203	0.530707419811
0	1138092	35.552763041862	0.54522117647
0	1138121	35.553406734903	0.545864869511
0	1138158	35.554050427944	0.546508562552
0	1138367	35.559709054151	0.552167188759
0	1138391	35.560297228292	0.5527553629
0	1138984	35.57594898873	0.568407123338
0	1139218	35.582121241934	0.574579376542
0	1140044	35.60424187832	0.596700012928
0	1140115	35.606236381715	0.598694516323
0	1140207	35.608167460838	0.600625595446
0	1156526	36.039125967435	0.031584101242998
0	1174803	36.536968976621	0.529427110429
0	1175305	36.551141714508	0.543599848316
0	1175333	36.551785407549	0.544243541357
0	1175362	36.55242910059	0.544887234398
0	1175581	36.558428745569	0.550886879377
0	1175604	36.55901691971	0.551475053518
0	1176118	36.572904157725	0.565362291533
0	1176403	36.580840933352	0.57329906716
0	1177233	36.60248998011	0.594948113918
0	1177284	36.603777366192	0.5962355
0	1177362	36.605708445315	0.598166579123
0	1193286	37.039167073399	0.031625206207003
0	1195993	37.102204326122	0.094662458930003
0	1196623	37.116488101809	0.108946234617
0	1196651	37.11713179485	0.109589927658
0	1196680	37.117775487891	0.11023362069901
0	1196917	37.12366409507	0.116122227878
0	1196955	37.124252269211	0.116710402019
0	1197849	37.144609422777	0.13706755558501
0	1197900	37.146076282853	0.13853441566101
0	1198841	37.167725329611	0.16018346241901
0	1199201	37.175843183072	0.16830131588
0	1199235	37.176661338185	0.169119470993
0	1235966	38.039338732292	0.031584101243006
0	1250694	38.410891789847	0.403137158798
0	1251275	38.425175565534	0.417420934485
0	1251310	38.425819258575	0.418064627526
0	1251331	38.426462951616	0.418708320567
0	1251577	38.432351558795	0.424596927746
0	1251614	38.432939732936	0.425185101887
0	1252484	38.453885060643	0.446130429594
0	1252544	38.455177458647	0.447422827598
0	1253460	38.476412793336	0.468658162287
0	1253729	38.482996105346	0.475241474297
0	1253824	38.485118820938	0.477364189889
0	1276740	39.039953729693	0.031955196304999
0	1285501	39.260215249451	0.252216716063
0	1286065	39.273855332097	0.265856798709
0	1286095	39.274499025138	0.26650049175
0	1286143	39.27578641122	0.267787877832
0	1286375	39.281675018399	0.273676485011
0	1286405	39.28226319254	0.274264659152
0	1287107	39.299679475401	0.291680942013
0	1287284	39.304087206182	0.296088672794
0	1288160	39.32573625294	0.317737719552
0	1288356	39.330325061555	0.322326528167
0	1288422	39.332089583978	0.32409105059
0	1316809	40.03982653697	0.031584101242998
0	1332126	40.422447352067	0.41420491634
0	1332692	40.436731127754	0.428488692027
0	1332722	40.437374820795	0.429132385068
0	1332755	40.438018513836	0.429776078109
0	1332989	40.443907121015	0.435664685288
0	1333017	40.444495295156	0.436252859429
0	1333828	40.46373161934	0.455489183613
0	1333952	40.466733020867	0.45849058514
0	1334856	40.487968355556	0.479725919829
0	1335111	40.493963493425	0.485721057698
0	1335209	40.496086209017	0.48784377329
0	1357979	41.040439070406	0.031952732340002
0	1366623	41.260007328851	0.251520990785
0	1367188	41.274180066738	0.265693728672
0	1367212	41.274823759779	0.266337421713
0	1367245	41.27546745282	0.266981114754
0	1367476	41.281467097799	0.272980759733
0	1367499	41.28205527194	0.273568933874
0	1368297	41.300703421983	0.292217083917
0	1368450	41.304237478751	0.295751140685
0	1369376	41.32634094074	0.317854602674
0	1369567	41.330347121927	0.321860783861
0	1369671	41.332699818491	0.324213480425
0	1397807	42.040314341648	0.031584101242998
0	1413251	42.425180302172	0.416450061767
0	1413790	42.438820384818	0.430090144413
0	1413840	42.4401077709	0.431377530495
0	1413864	42.440751463941	0.432021223536
0	1414112	42.44664007112	0.437909830715
0	1414142	42.447228245261	0.438498004856
0	1414901	42.465232702263	0.456502461858
0	1415060	42.469052258903	0.460322018498
0	1415999	42.490701305661	0.481971065256
0	1416183	42.495520095248	0.486789854843
0	1416267	42.497284617671	0.488554377266
0	1438335	43.040558243987	0.031584101242998
0	1446469	43.248624099572	0.239649956828
0	1447110	43.262907875259	0.25393373251499
0	1447130	43.2635515683	0.254577425556
0	1447160	43.264195261341	0.255221118597
0	1447433	43.27008386852	0.261109725776
0	1447469	43.270672042661	0.261697899917
0	1448322	43.290441022086	0.281466879342
0	1448405	43.292496056303	0.283521913559
0	1449317	43.314672211589	0.305698068845
0	1449532	43.32014024093	0.311166098186
0	1449646	43.322906649563	0.313932506819
0	1478740	44.040802146326	0.031584101243006
0	1491470	44.401445415932	0.39222737084901
0	1492001	44.415085498578	0.40586745349501
0	1492055	44.41637288466	0.407154839577
0	1492071	44.417016577701	0.407798532618
0	1492292	44.42290518488	0.41368713979701
0	1492336	44.423805389147	0.414587344064
0	1492821	44.437380597036	0.428162551953
0	1493093	44.44548739687	0.436269351787
0	1493874	44.466966419421	0.457748374338
0	1493956	44.469432512444	0.46021446736101
0	1494002	44.470608860726	0.461390815643
0	1512733	45.020430179621	0.011212134538006
0	1513235	45.034070262267	0.024852217184005
0	1513255	45.034713955308	0.025495910225004
0	1513284	45.035357648349	0.026139603266003
0	1513486	45.040802146326	0.031584101243006
0	1513525	45.041889948569	0.032671903486005
0	1513555	45.04247812271	0.033260077627006
0	1513992	45.054600838302	0.045382793219005
0	1514345	45.064302136352	0.055084091269002
0	1515068	45.084888231287	0.075670186204
0	1515106	45.08595118311	0.076733138027002
0	1515157	45.087240927851	0.078022882768003
0	1546030	46.020687960634	0.011469915551004
0	1546547	46.034860698521	0.025642653438005
0	1546571	46.035504391562	0.026286346479004
0	1546592	46.036148084603	0.026930039520003
0	1546765	46.040802146326	0.031584101243006
0	1546820	46.042147729582	0.032929684499003
0	1546846	46.042735903723	0.033517858640003
0	1547378	46.05779949002	0.048581444937007
0	1547643	46.064918110534	0.055700065451006
0	1548467	46.086208964123	0.07699091904
0	1548556	46.088675057146	0.079457012063003
0	1548621	46.090209598597	0.080991553514004
0	1581864	47.019806220224	0.010588174140999
0	1582452	47.033978958111	0.024760912028
0	1582475	47.034622651152	0.025404605068999
0	1582502	47.035266344193	0.026048298109998
0	1582701	47.040802147326	0.031584101242998
0	1582734	47.041265989172	0.032047943088997
0	1582767	47.041854163313	0.032636117229998
0	1583201	47.05278586428	0.043567818196998
0	1583677	47.064665396822	0.055447350739001
0	1584433	47.084416517284	0.075198471200999
0	1584461	47.085060210325	0.075842164241998
0	1584508	47.086347596407	0.077129550324003
0	1616224	48.025672228572	0.016454181489003
0	1616792	48.039844966459	0.030626919376004
0	1616813	48.0404886595	0.031270612417003
0	1616824	48.04084325329	0.031625206207003
0	1616873	48.041776045582	0.032557998499001
0	1617086	48.04713199752	0.037913950437002
0	1617108	48.047720171661	0.038502124578002
0	1617652	48.062251102717	0.053033055634003
0	1617925	48.069544185303	0.060326138220006
0	1618782	48.091664821689	0.082446774606005
0	1618835	48.092952207771	0.083734160688003
0	1618893	48.094605692394	0.085387645311002
0	1652137	49.020125427648	0.010907379564998
0	1652660	49.033765510294	0.024547462210997
0	1652684	49.034409203335	0.025191155252003
0	1652706	49.035052896376	0.025834848293002
0	1652928	49.0410153057	0.031797257617001
0	1652952	49.041585196596	0.032367148512996
0	1652978	49.042173370737	0.032955322653997
0	1653345	49.052066573589	0.042848525506002
0	1653792	49.063997384379	0.054779336296001
0	1654520	49.083130987017	0.073912938934001
0	1654598	49.084845357521	0.075627309437998
0	1654632	49.085720263864	0.076502215780998
0	1683494	50.020780585065	0.011562535982002
0	1684013	50.034420667711	0.025202618628001
0	1684035	50.035064360752	0.025846311669
0	1684057	50.035708053793	0.026490004710006
0	1684249	50.040802150326	0.031584101243006
0	1684304	50.042240354013	0.03302230493
0	1684328	50.042828528154	0.033610479071001
0	1684903	50.057892114451	0.048674065368004
0	1685155	50.064652541796	0.055434492713005
0	1685977	50.086301588554	0.077083539471005
0	1686053	50.087949526464	0.078731477381005
0	1686083	50.088593219505	0.079375170422004
0	1719795	51.023746631004	0.014528580921002
0	1720286	51.03738671365	0.028168663567001
0	1720332	51.038674099732	0.029456049648999
0	1720352	51.039317792773	0.030099742689998
0	1720414	51.040802151326	0.031584101242998
0	1720581	51.045206399952	0.035988349869001
0	1720617	51.045794574093	0.036576524010002
0	1721116	51.058505463826	0.049287413743002
0	1721448	51.067618587735	0.058400537651998
0	1722268	51.089267634493	0.080049584409998
0	1722285	51.089911327534	0.080693277450997
0	1722316	51.090557379234	0.081339329151
0	1751415	52.02092921796	0.011711166876999
0	1751970	52.035101955847	0.025883904764001
0	1751994	52.035745648888	0.026527597805
0	1752015	52.036389341929	0.027171290846006
0	1752171	52.04084325729	0.031625206207003
0	1752249	52.042388986908	0.033170935825005
0	1752288	52.043309932812	0.034091881729005
0	1752811	52.057508092105	0.048290041022
0	1753052	52.064991940535	0.055773889452006
0	1753812	52.086450221449	0.077232170366003
0	1753858	52.08773996619	0.078521915107004
0	1753922	52.089671045313	0.080452994230001
0	1787498	53.024955432811	0.015737380727998
0	1788045	53.038595515457	0.029377463373997
0	1788066	53.039239208498	0.030021156414996
0	1788104	53.04052659458	0.031308542497001
0	1788130	53.040802153326	0.031584101242998
0	1788353	53.046415201759	0.037197149675997
0	1788381	53.0470033759	0.037785323816998
0	1789102	53.065596007043	0.056377954959999
0	1789218	53.068827389542	0.059609337459001
0	1790065	53.0904764363	0.081258384217001
0	1790279	53.096241593197	0.087023541114
0	1790330	53.097528979279	0.088310927195998
0	1821883	54.025928124747	0.016710071664001
0	1822433	54.039568207393	0.03035015431
0	1822456	54.040211900434	0.030993847351006
0	1822488	54.040802154326	0.031584101243006
0	1822493	54.040855593475	0.031637540392005
0	1822752	54.047387893695	0.038169840611999
0	1822780	54.047976067836	0.038758014753
0	1823506	54.066568698979	0.057350645896001
0	1823623	54.069800081478	0.060582028395004
0	1824466	54.091449128236	0.082231075153004
0	1824680	54.096856091964	0.087638038881003
0	1824720	54.097756296231	0.088538243148001
0	1860677	55.040802155326	0.031584101242998
0	1862637	55.093464190662	0.084246136578997
0	1863151	55.107104273308	0.097886219224996
0	1863178	55.107747966349	0.098529912266002
0	1863199	55.10839165939	0.099173605307001
0	1863460	55.11492395961	0.105705905527
0	1863487	55.115512133751	0.106294079668
0	1864039	55.129987545907	0.120769491824
0	1864309	55.137336147393	0.12811809331
0	1865169	55.158985194151	0.149767140068
0	1865246	55.160633132061	0.151415077978
0	1865288	55.162039461315	0.152821407232
0	1896676	56.020857821191	0.011639766108004
0	1897205	56.034497903837	0.025279848754003
0	1897227	56.035141596878	0.025923541795002
0	1897257	56.035785289919	0.026567234836001
0	1897472	56.040802156326	0.031584101243006
0	1897541	56.042317590139	0.033099535056003
0	1897570	56.04290576428	0.033687709197004
0	1898222	56.059145698859	0.049927643776002
0	1898443	56.064729777922	0.055511722839
0	1899336	56.08724695198	0.078028896897003
0	1899428	56.089791285013	0.080573229930003
0	1899452	56.090434978054	0.081216922971002
0	1935554	57.040802157326	0.031584101242998
0	1937426	57.088982061247	0.079764005164002
0	1937955	57.102622143893	0.093404087810001
0	1938002	57.103909529975	0.094691473891999
0	1938026	57.104553223016	0.095335166932998
0	1938263	57.110441830195	0.101223774112
0	1938287	57.111030004336	0.101811948253
0	1938967	57.127269938915	0.118051882832
0	1939199	57.132854017978	0.123635961895
0	1940117	57.155085692164	0.145867636081
0	1940219	57.158145506041	0.148927449958
0	1940277	57.159321854323	0.15010379824
0	1972231	58.02013124747	0.010913190387001
0	1972628	58.033771330116	0.024553273033
0	1972642	58.034415023157	0.025196966073999
0	1972664	58.035058716198	0.025840659115005
0	1972844	58.040802158326	0.031584101243006
0	1972867	58.041591016418	0.032372959335
0	1972890	58.042179190559	0.032961133476
0	1973303	58.054054750782	0.044836693699004
0	1973648	58.064003204201	0.054785147118004
0	1974421	58.084498071029	0.075280013945999
0	1974470	58.085785457111	0.076567400028004
0	1974496	58.086429150152	0.077211093069003
0	2010757	59.040802159326	0.031584101242998
0	2012610	59.08875243356	0.079534375476996
0	2013153	59.102392516206	0.093174458122995
0	2013179	59.103036209247	0.093818151164001
0	2013199	59.103679902288	0.094461844205
0	2013447	59.110212202508	0.100994144425
0	2013487	59.110800376649	0.101582318566
0	2014207	59.128860352551	0.119642294468
0	2014357	59.132624390291	0.123406332208
0	2015214	59.154273437049	0.145055378966
0	2015402	59.159450419805	0.150232361722
0	2015453	59.160856749059	0.151638690976

