version 2
run Net10_4-0-20190331-20:54:49-12968
attr configname Net10_4
attr datetime 20190331-20:54:49
attr experiment Net10_4
attr inifile omnetpp.ini
attr iterationvars ""
attr iterationvarsf ""
attr measurement ""
attr network mogp.networks.Net10_4
attr processid 12968
attr repetition 0
attr replication #0
attr resultdir results
attr runnumber 0
attr seedset 0
param **.eventStorage.packetLength "1024 byte"
param **.node[*].operator[*].packetLength "1024 byte"

vector 0 Net10_4.eventStorage "End-to-End Delay" ETV
0	182	5	0
0	183	5	0
0	184	5	0
0	185	5	0
0	186	5	0
0	187	5	0
0	188	5	0
0	189	5	0
0	190	5	0
0	191	5	0
0	5630	6.001333333083	0
0	5631	6.001333333083	0
0	5706	6.011750512659	0.010417179576
0	5711	6.01176636601	0.010433032927
0	5716	6.011831056474	0.010497723391
0	5721	6.011903176773	0.01056984369
0	5726	6.012167692235	0.010834359152
0	5738	6.012473020463	0.01113968738
0	5743	6.012584871811	0.011251538728
0	5752	6.013042864153	0.01170953107
0	12247	7.002444444094	0
0	12248	7.002444444094	0
0	12332	7.01286162367	0.010417179576001
0	12337	7.012877477021	0.010433032927001
0	12345	7.012942167485	0.010497723391
0	12350	7.013014287784	0.010569843690001
0	12355	7.013278803246	0.010834359152001
0	12360	7.013584131474	0.01113968738
0	12365	7.013695982822	0.011251538728001
0	12377	7.014153975164	0.01170953107
0	19932	8.003396824646	0
0	19933	8.003396824646	0
0	20026	8.013814004222	0.010417179576001
0	20031	8.013829857573	0.010433032927001
0	20036	8.013894548037	0.010497723391
0	20041	8.013966668336	0.01056984369
0	20050	8.014231183798	0.010834359152
0	20055	8.014536512026	0.01113968738
0	20060	8.014648363374	0.011251538728001
0	20070	8.015106355716	0.01170953107
0	28701	9.004230157579	0
0	28702	9.004230157579	0
0	28807	9.014647337155	0.010417179575999
0	28812	9.014663190506	0.010433032926999
0	28817	9.01472788097	0.010497723391
0	28822	9.014800001269	0.01056984369
0	28828	9.015064516731	0.010834359152
0	28837	9.015369844959	0.01113968738
0	28842	9.015481696307	0.011251538727999
0	28848	9.015939688649	0.01170953107
0	38566	10.004230157929	0
0	38567	10.004230157929	0
0	38568	10.004230157929	0
0	38569	10.004230157929	0
0	38687	10.014647337505	0.010417179576001
0	38704	10.015064517081	0.010834359152
0	38715	10.015481696657	0.011251538728001
0	38833	10.025185094332	0.020954936403001
0	38845	10.025682817723	0.021452659794001
0	38854	10.026180541114	0.021950383185001
0	49494	11.004230158429	0
0	49495	11.004230158429	0
0	49496	11.004230158429	0
0	49497	11.004230158429	0
0	49628	11.014647338005	0.010417179576001
0	49641	11.015064517581	0.010834359152
0	49655	11.015481697157	0.011251538728001
0	49785	11.025185094832	0.020954936403001
0	49799	11.025682818223	0.021452659794001
0	49809	11.026180541614	0.021950383185001
0	61526	12.004836218935	0
0	61527	12.004836218935	0
0	61528	12.004836218935	0
0	61529	12.004836218935	0
0	61670	12.015253398511	0.010417179576001
0	61683	12.015670578087	0.010834359152001
0	61701	12.016087757663	0.011251538728001
0	61836	12.025791155338	0.020954936403001
0	61849	12.026288878729	0.021452659794001
0	61858	12.02678660212	0.021950383185001
0	74475	13.004836219735	0
0	74476	13.004836219735	0
0	74477	13.004836219735	0
0	74478	13.004836219735	0
0	74632	13.015253399311	0.010417179576001
0	74645	13.015670578887	0.010834359152
0	74658	13.016087758463	0.011251538728001
0	74806	13.025791156138	0.020954936403001
0	74818	13.026288879529	0.021452659794001
0	74830	13.02678660292	0.021950383185001
0	88190	14.004836220085	0
0	88191	14.004836220085	0
0	88192	14.004836220085	0
0	88193	14.004836220085	0
0	88342	14.015253399661	0.010417179575999
0	88358	14.015670579237	0.010834359152
0	88372	14.016087758813	0.011251538727999
0	88530	14.025791156488	0.020954936402999
0	88539	14.026288879879	0.021452659793999
0	88551	14.02678660327	0.021950383185001
0	102980	15.005312410161	0
0	102981	15.005312410161	0
0	102982	15.005312410161	0
0	102983	15.005312410161	0
0	103163	15.015729589737	0.010417179575999
0	103180	15.016146769313	0.010834359152
0	103194	15.016563948889	0.011251538727999
0	103368	15.026267346564	0.020954936402999
0	103381	15.026765069955	0.021452659793999
0	103391	15.027262793346	0.021950383184999
0	116507	16.005756853605	0
0	116508	16.005756853605	0
0	116509	16.005756853605	0
0	116510	16.005756853605	0
0	116721	16.016174033181	0.010417179575999
0	116736	16.016591212757	0.010834359152
0	116750	16.017008392333	0.011251538728001
0	117032	16.026871626849	0.021114773244001
0	117046	16.02736935024	0.021612496635001
0	117069	16.027867073631	0.022110220026001
0	144081	17.005756854405	0
0	144082	17.005756854405	0
0	144083	17.005756854405	0
0	144084	17.005756854405	0
0	144381	17.016174033981	0.010417179575999
0	144398	17.016591213557	0.010834359152
0	144413	17.017008393133	0.011251538728001
0	144711	17.02695496098	0.021198106575
0	144728	17.027452684371	0.021695829965999
0	144743	17.027950407762	0.022193553356999
0	155149	18.005756855055	0
0	155150	18.005756855055	0
0	155151	18.005756855055	0
0	155152	18.005756855055	0
0	155288	18.016174034631	0.010417179575999
0	155300	18.016591214207	0.010834359152
0	155314	18.017008393783	0.011251538727997
0	155456	18.026711791458	0.020954936402998
0	155465	18.027209514849	0.021452659793997
0	155480	18.02770723824	0.021950383184997
0	172023	19.006127224425	0
0	172024	19.006127224425	0
0	172025	19.006127224425	0
0	172026	19.006127224425	0
0	172355	19.016544404001	0.010417179575999
0	172373	19.016961583577	0.010834359152
0	172393	19.017378763153	0.011251538728001
0	172763	19.029253812522	0.023126588097
0	172784	19.029751535913	0.023624311488
0	172798	19.030249259304	0.024122034878999
0	199024	20.006127224475	0
0	199025	20.006127224475	0
0	199026	20.006127224475	0
0	199027	20.006127224475	0
0	199142	20.016544404051	0.010417179576002
0	199154	20.016961583627	0.010834359152003
0	199168	20.017378763203	0.011251538728001
0	199275	20.027082160878	0.020954936403001
0	199286	20.027579884269	0.021452659794001
0	199294	20.02807760766	0.021950383185001
0	211827	21.006460556808	0
0	211828	21.006460556808	0
0	211829	21.006460556808	0
0	211830	21.006460556808	0
0	212001	21.016961582627	0.010501025819
0	212010	21.017378762203	0.010918205394997
0	212024	21.017795941779	0.011335384970998
0	212183	21.027415493211	0.020954936402998
0	212193	21.027913216602	0.021452659793997
0	212212	21.028410939993	0.021950383184997
0	239276	22.006778015675	0
0	239277	22.006778015675	0
0	239278	22.006778015675	0
0	239279	22.006778015675	0
0	239627	22.017195195251	0.010417179575999
0	239645	22.017612374827	0.010834359152
0	239657	22.018029554403	0.011251538728001
0	244125	22.156954256411	0.150176240736
0	244144	22.157451979802	0.150673964127
0	244158	22.157949703193	0.151171687518
0	257579	23.007081045878	0
0	257580	23.007081045878	0
0	257581	23.007081045878	0
0	257582	23.007081045878	0
0	257759	23.017498225454	0.010417179575999
0	257774	23.01791540503	0.010834359152
0	257787	23.018332584606	0.011251538728001
0	257962	23.028035982281	0.020954936403001
0	257973	23.028533705672	0.021452659794001
0	257985	23.029031429063	0.021950383185001
0	282799	24.00737089935	0
0	282800	24.00737089935	0
0	282801	24.00737089935	0
0	282802	24.00737089935	0
0	283175	24.01791540343	0.010544504079999
0	283187	24.018332583006	0.010961683655999
0	283205	24.018749762582	0.011378863232
0	288638	24.178179534118	0.170808634768
0	288661	24.178677257509	0.171306358159
0	288678	24.1791749809	0.17180408155
0	306503	25.00737090015	0
0	306504	25.00737090015	0
0	306505	25.00737090015	0
0	306506	25.00737090015	0
0	306696	25.017803933077	0.010433032927001
0	306709	25.018066883322	0.010695983171999
0	306719	25.018484062898	0.011113162748
0	306731	25.018901242474	0.011530342323997
0	306740	25.01931842205	0.011947521899998
0	306910	25.028325836553	0.020954936402998
0	332437	26.0073709014	0
0	332438	26.0073709014	0
0	332439	26.0073709014	0
0	332440	26.0073709014	0
0	332817	26.017803934327	0.010433032927001
0	332825	26.017938593885	0.010567692485001
0	332842	26.018355773461	0.010984872061002
0	332863	26.018772953037	0.011402051637003
0	332875	26.019190132613	0.011819231213
0	340092	26.222811436083	0.215440534683
0	358878	27.007627310056	0
0	358879	27.007627310056	0
0	358880	27.007627310056	0
0	358881	27.007627310056	0
0	359085	27.018044489632	0.010417179576002
0	359090	27.018060342983	0.010433032927001
0	359103	27.018461669208	0.010834359152
0	359116	27.018878848784	0.011251538728001
0	359129	27.01929602836	0.011668718304001
0	359313	27.028582246459	0.020954936403001
0	390244	28.007874222636	0
0	390245	28.007874222636	0
0	390246	28.007874222636	0
0	390247	28.007874222636	0
0	390392	28.018291402212	0.010417179576002
0	390397	28.018307255563	0.010433032927001
0	390412	28.018708581788	0.010834359152003
0	390424	28.019125761364	0.011251538728001
0	390436	28.01954294094	0.011668718304001
0	390566	28.028829159039	0.020954936403001
0	409367	29.008112317474	0
0	409368	29.008112317474	0
0	409369	29.008112317474	0
0	409370	29.008112317474	0
0	409774	29.01852949705	0.010417179576002
0	409787	29.01874028809	0.010627970616003
0	409799	29.018946676626	0.010834359152003
0	409818	29.019363856202	0.011251538728001
0	409836	29.019781035778	0.011668718304001
0	410222	29.029067253877	0.020954936403001
0	438442	30.008342200481	0
0	438443	30.008342200481	0
0	438444	30.008342200481	0
0	438445	30.008342200481	0
0	438665	30.018759380057	0.010417179575999
0	438670	30.018775233408	0.010433032927001
0	438687	30.019176559633	0.010834359152
0	438700	30.019593739209	0.011251538728001
0	438713	30.020010918785	0.011668718304001
0	438923	30.029297136884	0.020954936403001
0	470083	31.008564421703	0
0	470084	31.008564421703	0
0	470085	31.008564421703	0
0	470086	31.008564421703	0
0	470515	31.018981601279	0.010417179575999
0	470521	31.01899745463	0.010433032927001
0	470539	31.019398780855	0.010834359152
0	470560	31.019815960431	0.011251538728001
0	470581	31.020233140007	0.011668718304001
0	470989	31.029794859275	0.021230437572001
0	491151	32.008779473416	0
0	491152	32.008779473416	0
0	491153	32.008779473416	0
0	491154	32.008779473416	0
0	491398	32.019196652992	0.010417179576002
0	491403	32.019212506343	0.010433032927004
0	491419	32.019613832568	0.010834359152
0	491432	32.020031012144	0.011251538728004
0	491445	32.02044819172	0.011668718304001
0	491670	32.029734409819	0.020954936403001
0	522688	33.008987805149	0
0	522689	33.008987805149	0
0	522690	33.008987805149	0
0	522691	33.008987805149	0
0	522942	33.019420838076	0.010433032927004
0	522954	33.019614343878	0.010626538728999
0	522969	33.020031523454	0.011043718305004
0	522981	33.02044870303	0.011460897881001
0	522993	33.020865882606	0.011878077456998
0	523222	33.029942741552	0.020954936403001
0	556514	34.009189825251	0
0	556515	34.009189825251	0
0	556516	34.009189825251	0
0	556517	34.009189825251	0
0	556699	34.019607004827	0.010417179576002
0	556704	34.019622858178	0.010433032926997
0	556719	34.020024184403	0.010834359152
0	556731	34.020441363979	0.011251538727997
0	556744	34.020858543555	0.011668718304001
0	556903	34.030144761654	0.020954936403001
0	581269	35.009385901782	0
0	581270	35.009385901782	0
0	581271	35.009385901782	0
0	581272	35.009385901782	0
0	581752	35.019818934709	0.010433032927004
0	582056	35.026208896142	0.016822994360005
0	582078	35.026626075718	0.017240173936003
0	582099	35.027043255294	0.017657353512
0	582117	35.02746043487	0.018074533088004
0	582268	35.030642483145	0.021256581363005
0	613971	36.009576375472	0
0	613972	36.009576375472	0
0	613973	36.009576375472	0
0	613974	36.009576375472	0
0	614240	36.019993555048	0.010417179575995
0	614245	36.020009408399	0.010433032926997
0	614261	36.020410734624	0.010834359152
0	614274	36.0208279142	0.011251538727997
0	614289	36.021245093776	0.011668718304001
0	614544	36.030531311875	0.020954936403001
0	649588	37.009761559657	0
0	649589	37.009761559657	0
0	649590	37.009761559657	0
0	649591	37.009761559657	0
0	649868	37.020194592584	0.010433032926997
0	649885	37.020410733624	0.010649173966996
0	649898	37.0208279132	0.011066353543001
0	649910	37.021245092776	0.011483533118998
0	649925	37.021662272352	0.011900712694995
0	650175	37.03071649606	0.020954936403001
0	684018	38.009941738837	0
0	684019	38.009941738837	0
0	684020	38.009941738837	0
0	684021	38.009941738837	0
0	684540	38.020447444331	0.010505705493998
0	685059	38.03089667524	0.020954936403001
0	687475	38.080085636961	0.070143898124002
0	687501	38.080502816537	0.070561077699999
0	687525	38.080919996113	0.070978257275996
0	687543	38.081337175689	0.071395436852001
0	713956	39.010117174633	0
0	713957	39.010117174633	0
0	713958	39.010117174633	0
0	713959	39.010117174633	0
0	714495	39.020807801891	0.010690627257993
0	714887	39.028424337905	0.018307163271999
0	714910	39.028841517481	0.018724342847996
0	714931	39.029258697057	0.019141522423993
0	714957	39.029675876633	0.019558701999998
0	715030	39.031072111036	0.020954936402994
0	751612	40.010117174983	0
0	751613	40.010117174983	0
0	751614	40.010117174983	0
0	751615	40.010117174983	0
0	751915	40.02055020791	0.010433032926997
0	751931	40.020855893198	0.010738718214995
0	751944	40.021273072774	0.011155897790999
0	751961	40.02169025235	0.011573077366997
0	751973	40.022107431926	0.011990256943001
0	752244	40.031072111386	0.020954936403001
0	791051	41.010117176983	0
0	791052	41.010117176983	0
0	791053	41.010117176983	0
0	791054	41.010117176983	0
0	791354	41.02055020991	0.010433032926997
0	791370	41.02086871571	0.010751538727
0	791386	41.021285895286	0.011168718302997
0	791399	41.021703074862	0.011585897878994
0	791415	41.022120254438	0.012003077454999
0	791683	41.031072113386	0.020954936402994
0	829115	42.010117178983	0
0	829116	42.010117178983	0
0	829117	42.010117178983	0
0	829118	42.010117178983	0
0	829656	42.02055021191	0.010433032926997
0	830222	42.03140317211	0.021285993126995
0	834418	42.127522163351	0.11740498436799
0	834430	42.127939342927	0.117822163944
0	834445	42.128356522503	0.11823934352
0	834458	42.128773702079	0.118656523096
0	861102	43.010117180983	0
0	861103	43.010117180983	0
0	861104	43.010117180983	0
0	861105	43.010117180983	0
0	861643	43.02055021391	0.010433032926997
0	862210	43.03140317411	0.021285993126995
0	862802	43.043005153415	0.032887972432
0	862824	43.043422332991	0.033305152007998
0	862849	43.043839512567	0.033722331583995
0	862870	43.044256692143	0.034139511159999
0	899301	44.010117182983	0
0	899302	44.010117182983	0
0	899303	44.010117182983	0
0	899304	44.010117182983	0
0	899602	44.02055021591	0.010433032926997
0	899618	44.02086872171	0.010751538727
0	899635	44.021285901286	0.011168718302997
0	899648	44.021703080862	0.011585897878994
0	899665	44.022120260438	0.012003077454999
0	899933	44.031072119386	0.020954936402994
0	939419	45.010117184983	0
0	939420	45.010117184983	0
0	939421	45.010117184983	0
0	939422	45.010117184983	0
0	939715	45.020535390376	0.010418205392995
0	939720	45.02055021791	0.010433032926997
0	939739	45.020952569952	0.010835384968999
0	939753	45.021369749528	0.011252564544996
0	939768	45.021786929104	0.011669744120994
0	940040	45.031072121386	0.020954936402994
0	975747	46.010117186983	0
0	975748	46.010117186983	0
0	975749	46.010117186983	0
0	975750	46.010117186983	0
0	976287	46.02055021991	0.010433032926997
0	976859	46.03140318011	0.021285993126995
0	980838	46.108237535691	0.098120348707994
0	980865	46.108654715267	0.098537528283998
0	980886	46.109071894843	0.098954707859995
0	980911	46.109489074419	0.099371887436
0	1008439	47.010117188983	0
0	1008440	47.010117188983	0
0	1008441	47.010117188983	0
0	1008442	47.010117188983	0
0	1008737	47.02055022191	0.010433032927004
0	1008753	47.02086872771	0.010751538727007
0	1008771	47.021285907286	0.011168718303004
0	1008784	47.021703086862	0.011585897879002
0	1008799	47.022120266438	0.012003077455006
0	1009068	47.031072125386	0.020954936403001
0	1049096	48.010117190983	0
0	1049097	48.010117190983	0
0	1049098	48.010117190983	0
0	1049099	48.010117190983	0
0	1049395	48.02055022391	0.010433032927004
0	1049411	48.02086872971	0.010751538727
0	1049427	48.021285909286	0.011168718303004
0	1049440	48.021703088862	0.011585897879002
0	1049455	48.022120268438	0.012003077455006
0	1049725	48.031072127386	0.020954936403001
0	1089043	49.010117192983	0
0	1089044	49.010117192983	0
0	1089045	49.010117192983	0
0	1089046	49.010117192983	0
0	1089580	49.02055022591	0.010433032927004
0	1090144	49.03140318611	0.021285993127002
0	1094819	49.147142197979	0.137025004996
0	1094832	49.147559377555	0.137442184572
0	1094849	49.147976557131	0.13785936414801
0	1094861	49.148393736707	0.138276543724
0	1119182	50.010117194983	0
0	1119183	50.010117194983	0
0	1119184	50.010117194983	0
0	1119185	50.010117194983	0
0	1119725	50.02055022791	0.010433032927004
0	1120093	50.027577458887	0.017460263904006
0	1120115	50.027994638463	0.017877443480003
0	1120137	50.028411818039	0.018294623056001
0	1120162	50.028828997615	0.018711802632005
0	1120301	50.03140318811	0.021285993127002
0	1160187	51.010117196983	0
0	1160188	51.010117196983	0
0	1160189	51.010117196983	0
0	1160190	51.010117196983	0
0	1160480	51.02055022991	0.010433032927004
0	1160496	51.02086873571	0.010751538727
0	1160513	51.021285915286	0.011168718303004
0	1160526	51.021703094862	0.011585897879002
0	1160542	51.022120274438	0.012003077455006
0	1160804	51.031072133386	0.020954936403001
0	1199510	52.010117198983	0
0	1199511	52.010117198983	0
0	1199512	52.010117198983	0
0	1199513	52.010117198983	0
0	1199820	52.02055023191	0.010433032927004
0	1200140	52.031072135386	0.020954936403001
0	1201569	52.080086809727	0.069969610744003
0	1201584	52.080503989303	0.070386790320001
0	1201596	52.080921168879	0.070803969896005
0	1201613	52.081338348455	0.071221149472002
0	1229685	53.010117200983	0
0	1229686	53.010117200983	0
0	1229687	53.010117200983	0
0	1229688	53.010117200983	0
0	1230226	53.02055023391	0.010433032927004
0	1230791	53.03140319411	0.021285993127002
0	1231859	53.052228260035	0.042111059052004
0	1231885	53.052645439611	0.042528238628002
0	1231906	53.053062619187	0.042945418203999
0	1231931	53.053479798763	0.043362597780003
0	1263462	54.010117202983	0
0	1263463	54.010117202983	0
0	1263464	54.010117202983	0
0	1263465	54.010117202983	0
0	1263763	54.02055023591	0.010433032927004
0	1263779	54.02086874171	0.010751538727
0	1263795	54.021285921286	0.011168718303004
0	1263808	54.021703100862	0.011585897879002
0	1263823	54.022120280438	0.012003077454999
0	1264094	54.031072139386	0.020954936403001
0	1300141	55.010117204983	0
0	1300142	55.010117204983	0
0	1300143	55.010117204983	0
0	1300144	55.010117204983	0
0	1300438	55.02055023791	0.010433032927004
0	1300454	55.020784897468	0.010667692485001
0	1300468	55.021202077044	0.011084872061005
0	1300484	55.02161925662	0.011502051637002
0	1300497	55.022036436196	0.011919231213
0	1300766	55.031072141386	0.020954936403001
0	1337732	56.010117206983	0
0	1337733	56.010117206983	0
0	1337734	56.010117206983	0
0	1337735	56.010117206983	0
0	1338283	56.02081660617	0.010699399187004
0	1338811	56.031072143386	0.020954936403001
0	1341713	56.121904493137	0.11178728615401
0	1341728	56.122321672713	0.11220446573
0	1341741	56.122738852289	0.112621645306
0	1341758	56.123156031865	0.113038824882
0	1365708	57.010117208983	0
0	1365709	57.010117208983	0
0	1365710	57.010117208983	0
0	1365711	57.010117208983	0
0	1366054	57.02055024191	0.010433032927004
0	1366071	57.020784901468	0.010667692485001
0	1366086	57.021202081044	0.011084872061005
0	1366108	57.02161926062	0.011502051637002
0	1366126	57.022036440196	0.011919231213
0	1366554	57.031072145386	0.020954936403001
0	1403013	58.010117210983	0
0	1403014	58.010117210983	0
0	1403015	58.010117210983	0
0	1403016	58.010117210983	0
0	1403316	58.02055024391	0.010433032927004
0	1403332	58.020784903468	0.010667692485001
0	1403346	58.021202083044	0.011084872060998
0	1403362	58.02161926262	0.011502051637002
0	1403375	58.022036442196	0.011919231213
0	1403643	58.031072147386	0.020954936403001
0	1441970	59.010117212983	0
0	1441971	59.010117212983	0
0	1441972	59.010117212983	0
0	1441973	59.010117212983	0
0	1442190	59.020534392559	0.010417179576002
0	1442195	59.02055024591	0.010433032927004
0	1442214	59.020951572135	0.010834359152
0	1442226	59.021368751711	0.011251538728004
0	1442243	59.021785931287	0.011668718304001
0	1442419	59.031072149386	0.020954936403001
0	1471365	60.010117214983	0
0	1471366	60.010117214983	0
0	1471367	60.010117214983	0
0	1471368	60.010117214983	0
0	1471922	60.02081661417	0.010699399187004
0	1472458	60.031072151386	0.020954936403001
0	1473328	60.047952115693	0.037834900710003
0	1473346	60.048369295269	0.038252080286
0	1473375	60.048786474845	0.038669259862004
0	1473392	60.049203654421	0.039086439438002
0	1506959	61.010117216983	0
0	1506960	61.010117216983	0
0	1506961	61.010117216983	0
0	1506962	61.010117216983	0
0	1507258	61.02055024991	0.010433032927004
0	1507273	61.020784909468	0.010667692485001
0	1507287	61.021202089044	0.011084872060998
0	1507303	61.02161926862	0.011502051637002
0	1507316	61.022036448196	0.011919231213
0	1507589	61.031072153386	0.020954936403001
0	1546511	62.010117218983	0
0	1546512	62.010117218983	0
0	1546513	62.010117218983	0
0	1546514	62.010117218983	0
0	1546724	62.020534398559	0.010417179576002
0	1546729	62.02055025191	0.010433032927004
0	1546749	62.020951578135	0.010834359152
0	1546761	62.021368757711	0.011251538728004
0	1546776	62.021785937287	0.011668718304001
0	1546952	62.031072155386	0.020954936403001
0	1575653	63.010117220983	0
0	1575654	63.010117220983	0
0	1575655	63.010117220983	0
0	1575656	63.010117220983	0
0	1576191	63.02055025391	0.010433032926997
0	1576762	63.03140321411	0.021285993127002
0	1577444	63.044682118255	0.034564897271999
0	1577465	63.045099297831	0.034982076848003
0	1577490	63.045516477407	0.035399256424
0	1577513	63.045933656983	0.035816435999998
0	1612166	64.010117222983	0
0	1612167	64.010117222983	0
0	1612168	64.010117222983	0
0	1612169	64.010117222983	0
0	1612462	64.02055025591	0.010433032926997
0	1612478	64.02086876171	0.010751538727007
0	1612495	64.021285941286	0.011168718302997
0	1612508	64.021703120862	0.011585897879002
0	1612523	64.022120300438	0.012003077455006
0	1612797	64.031072159386	0.020954936403001
0	1652411	65.010117224983	0
0	1652412	65.010117224983	0
0	1652413	65.010117224983	0
0	1652414	65.010117224983	0
0	1652725	65.02055025791	0.010433032926997
0	1653042	65.031072161386	0.020954936402987
0	1654513	65.081314025599	0.071196800615994
0	1654525	65.081731205175	0.071613980191998
0	1654541	65.082148384751	0.072031159767988
0	1654552	65.082565564327	0.072448339343993
0	1679299	66.010117226983	0
0	1679300	66.010117226983	0
0	1679301	66.010117226983	0
0	1679302	66.010117226983	0
0	1679634	66.020535432376	0.010418205392995
0	1679640	66.02055025991	0.010433032926997
0	1679661	66.020952611952	0.010835384968999
0	1679676	66.021369791528	0.011252564545003
0	1679694	66.021786971104	0.011669744120994
0	1680102	66.031072163386	0.020954936403001
0	1718130	67.010117228983	0
0	1718131	67.010117228983	0
0	1718132	67.010117228983	0
0	1718133	67.010117228983	0
0	1718427	67.02055026191	0.010433032927011
0	1718442	67.020784921468	0.010667692485001
0	1718456	67.021202101044	0.011084872061005
0	1718472	67.02161928062	0.011502051637009
0	1718485	67.022036460196	0.011919231213014
0	1718762	67.031072165386	0.020954936403001
0	1755411	68.010117230983	0
0	1755412	68.010117230983	0
0	1755413	68.010117230983	0
0	1755414	68.010117230983	0
0	1755955	68.02055026391	0.010433032926997
0	1756525	68.03140322411	0.021285993126995
0	1761015	68.118634513699	0.10851728271599
0	1761038	68.119051693275	0.108934462292
0	1761063	68.119468872851	0.109351641868
0	1761085	68.119886052427	0.10976882144399
0	1785699	69.010117232983	0
0	1785700	69.010117232983	0
0	1785701	69.010117232983	0
0	1785702	69.010117232983	0
0	1785991	69.020535438376	0.010418205393009
0	1785996	69.02055026591	0.010433032927011
0	1786015	69.020952617952	0.010835384969013
0	1786029	69.021369797528	0.011252564545003
0	1786045	69.021786977104	0.011669744121008
0	1786321	69.031072169386	0.020954936403001
0	1822686	70.010117234983	0
0	1822687	70.010117234983	0
0	1822688	70.010117234983	0
0	1822689	70.010117234983	0
0	1822903	70.020534414559	0.010417179575995
0	1822908	70.02055026791	0.010433032926997
0	1822928	70.020951594135	0.010834359152
0	1822940	70.021368773711	0.011251538728004
0	1822954	70.021785953287	0.011668718303994
0	1823152	70.031072171386	0.020954936403001
0	1855268	71.010117236983	0
0	1855269	71.010117236983	0
0	1855270	71.010117236983	0
0	1855271	71.010117236983	0
0	1855831	71.02081663617	0.010699399187004
0	1856361	71.031072173386	0.020954936403001
0	1858305	71.068746005709	0.05862876872601
0	1858331	71.069163185285	0.059045948302
0	1858354	71.069580364861	0.059463127878004
0	1858379	71.069997544437	0.059880307454009
0	1893570	72.010117238983	0
0	1893571	72.010117238983	0
0	1893572	72.010117238983	0
0	1893573	72.010117238983	0
0	1893872	72.020535444376	0.010418205392995
0	1893877	72.02055027191	0.010433032926997
0	1893896	72.020952623952	0.010835384968999
0	1893910	72.021369803528	0.011252564545003
0	1893926	72.021786983104	0.011669744120994
0	1894202	72.031072175386	0.020954936403001
0	1930750	73.010117240983	0
0	1930751	73.010117240983	0
0	1930752	73.010117240983	0
0	1930753	73.010117240983	0
0	1931306	73.02081664017	0.010699399187004
0	1931839	73.031072177386	0.020954936403001
0	1936283	73.117544522553	0.10742728157001
0	1936308	73.117961702129	0.107844461146
0	1936326	73.118378881705	0.10826164072201
0	1936356	73.118796061281	0.10867882029801
0	1964607	74.010117242983	0
0	1964608	74.010117242983	0
0	1964609	74.010117242983	0
0	1964610	74.010117242983	0
0	1964898	74.02055027591	0.010433032926997
0	1964914	74.02086878171	0.010751538726993
0	1964930	74.021285961286	0.011168718302997
0	1964943	74.021703140862	0.011585897879002
0	1964958	74.022120320438	0.012003077454992
0	1965233	74.031072179386	0.020954936403001
0	2005724	75.010117244983	0
0	2005725	75.010117244983	0
0	2005726	75.010117244983	0
0	2005727	75.010117244983	0
0	2006275	75.02081664417	0.010699399187004
0	2006806	75.031072181386	0.020954936403001
0	2012801	75.160976879909	0.15085963492601
0	2012813	75.161394059485	0.15127681450201
0	2012829	75.161811239061	0.151693994078
0	2012841	75.162228418637	0.15211117365401
0	2025540	76.010783912991	0
0	2025541	76.010783912991	0
0	2025542	76.010783912991	0
0	2025560	76.021241126003	0.010457213012003
0	2025565	76.021306347123	0.010522434132
0	2025570	76.02131972483	0.010535811838992
0	2025575	76.021375657302	0.010591744311
0	2025580	76.021698339015	0.010914426024002
0	2025585	76.021855536669	0.011071623677992
0	2025590	76.022155552027	0.011371639036
0	2026212	77.010783913191	0
0	2026213	77.010783913191	0
0	2026214	77.010783913191	0
0	2026232	77.021241126203	0.010457213011989
0	2026237	77.021306347323	0.010522434132
0	2026242	77.02131972503	0.010535811838992
0	2026247	77.021375657502	0.010591744310986
0	2026252	77.021698339215	0.010914426023987
0	2026257	77.021855536869	0.011071623677992
0	2026262	77.022155552227	0.011371639036
0	2026884	78.010783913391	0
0	2026885	78.010783913391	0
0	2026886	78.010783913391	0
0	2026904	78.021241126403	0.010457213012003
0	2026909	78.021306347523	0.010522434132
0	2026914	78.02131972523	0.010535811839006
0	2026919	78.021375657702	0.010591744311
0	2026924	78.021698339415	0.010914426024002
0	2026929	78.021855537069	0.011071623678006
0	2026934	78.022155552427	0.011371639036
0	2027556	79.010783913591	0
0	2027557	79.010783913591	0
0	2027558	79.010783913591	0
0	2027576	79.021241126603	0.010457213012003
0	2027581	79.021306347723	0.010522434132
0	2027586	79.02131972543	0.010535811839006
0	2027591	79.021375657902	0.010591744311
0	2027596	79.021698339615	0.010914426024002
0	2027601	79.021855537269	0.011071623678006
0	2027606	79.022155552627	0.011371639036
0	2028233	80.010783913791	0
0	2028234	80.010783913791	0
0	2028253	80.021241126803	0.010457213012003
0	2028258	80.02131972563	0.010535811838992
0	2028263	80.021698339815	0.010914426024002
0	2028268	80.021855537469	0.011071623677992
0	2028273	80.022155552827	0.011371639036
0	2028278	80.022391349308	0.011607435516993
0	2028284	80.022612765839	0.011828852047998
0	2028289	80.022927161147	0.012143247355993
0	2028907	81.010783913991	0
0	2028908	81.010783913991	0
0	2028927	81.021241127003	0.010457213012003
0	2028932	81.02131972583	0.010535811839006
0	2028937	81.021698340015	0.010914426024002
0	2028942	81.021855537669	0.011071623678006
0	2028947	81.022155553027	0.011371639036014
0	2028952	81.022391349508	0.011607435517007
0	2028958	81.022612766039	0.011828852048012
0	2028963	81.022927161347	0.012143247356008
0	2029581	82.010783914191	0
0	2029582	82.010783914191	0
0	2029601	82.021241127203	0.010457213012003
0	2029606	82.02131972603	0.010535811839006
0	2029611	82.021698340215	0.010914426024002
0	2029616	82.021855537869	0.011071623678006
0	2029621	82.022155553227	0.011371639036
0	2029626	82.022391349708	0.011607435517007
0	2029632	82.022612766239	0.011828852047998
0	2029637	82.022927161547	0.012143247356008
0	2030255	83.010783914391	0
0	2030256	83.010783914391	0
0	2030275	83.021241127403	0.010457213012003
0	2030280	83.02131972623	0.010535811839006
0	2030285	83.021698340415	0.010914426024002
0	2030290	83.021855538069	0.011071623678006
0	2030295	83.022155553427	0.011371639036
0	2030300	83.022391349908	0.011607435516993
0	2030306	83.022612766439	0.011828852047998
0	2030311	83.022927161747	0.012143247355993
0	2030929	84.010783914591	0
0	2030930	84.010783914591	0
0	2030949	84.021241127603	0.010457213012003
0	2030954	84.02131972643	0.010535811838992
0	2030959	84.021698340615	0.010914426024002
0	2030964	84.021855538269	0.011071623677992
0	2030969	84.022155553627	0.011371639036
0	2030974	84.022391350108	0.011607435516993
0	2030980	84.022612766639	0.011828852047998
0	2030985	84.022927161947	0.012143247355993
0	2031610	85.010783914791	0
0	2031611	85.010783914791	0
0	2031630	85.021241127803	0.010457213012003
0	2031635	85.02131972663	0.010535811839006
0	2031640	85.021698340815	0.010914426024002
0	2031645	85.022155553827	0.011371639036014
0	2031651	85.022612766839	0.011828852048012
0	2031677	85.033495406436	0.022711491645012
0	2031682	85.033952619448	0.02316870465701
0	2031688	85.03440983246	0.023625917669008
0	2032299	86.010783914991	0
0	2032300	86.010783914991	0
0	2032319	86.021241128003	0.010457213012003
0	2032324	86.02131972683	0.010535811839006
0	2032329	86.021698341015	0.010914426024002
0	2032334	86.022155554027	0.011371639036
0	2032340	86.022612767039	0.011828852047998
0	2032366	86.033495406636	0.022711491644998
0	2032371	86.033952619648	0.02316870465701
0	2032377	86.03440983266	0.023625917669008
0	2032988	87.010783915191	0
0	2032989	87.010783915191	0
0	2033008	87.021241128203	0.010457213012003
0	2033013	87.02131972703	0.010535811839006
0	2033018	87.021698341215	0.010914426024002
0	2033023	87.022155554227	0.011371639036
0	2033029	87.022612767239	0.011828852047998
0	2033055	87.033495406836	0.022711491644998
0	2033060	87.033952619848	0.023168704656996
0	2033066	87.03440983286	0.023625917668994
0	2033677	88.010783915391	0
0	2033678	88.010783915391	0
0	2033697	88.021241128403	0.010457213011989
0	2033702	88.02131972723	0.010535811838992
0	2033707	88.021698341415	0.010914426024002
0	2033712	88.022155554427	0.011371639036
0	2033718	88.022612767439	0.011828852047998
0	2033744	88.033495407036	0.022711491644998
0	2033749	88.033952620048	0.023168704656996
0	2033755	88.03440983306	0.023625917668994
0	2034366	89.010783915591	0
0	2034367	89.010783915591	0
0	2034386	89.021241128603	0.010457213012003
0	2034391	89.02131972743	0.010535811839006
0	2034396	89.021698341615	0.010914426024002
0	2034401	89.022155554627	0.011371639036
0	2034407	89.022612767639	0.011828852048012
0	2034433	89.033495407236	0.022711491645012
0	2034438	89.033952620248	0.02316870465701
0	2034444	89.03440983326	0.023625917669008
0	2035062	90.010783915791	0
0	2035063	90.010783915791	0
0	2035082	90.021241128803	0.010457213012003
0	2035087	90.02131972763	0.010535811839006
0	2035092	90.021698341815	0.010914426024002
0	2035097	90.021855539469	0.011071623678006
0	2035102	90.022155554827	0.011371639036
0	2035107	90.022391351308	0.011607435517007
0	2035113	90.022612767839	0.011828852047998
0	2035118	90.022927163147	0.012143247356008
0	2035736	91.010783915991	0
0	2035737	91.010783915991	0
0	2035756	91.021241129003	0.010457213012003
0	2035761	91.02131972783	0.010535811839006
0	2035766	91.021698342015	0.010914426024002
0	2035771	91.021855539669	0.011071623678006
0	2035776	91.022155555027	0.011371639036
0	2035781	91.022391351508	0.011607435516993
0	2035787	91.022612768039	0.011828852047998
0	2035792	91.022927163347	0.012143247355993
0	2036410	92.010783916191	0
0	2036411	92.010783916191	0
0	2036430	92.021241129203	0.010457213011989
0	2036435	92.02131972803	0.010535811838992
0	2036440	92.021698342215	0.010914426024002
0	2036445	92.021855539869	0.011071623677992
0	2036450	92.022155555227	0.011371639036
0	2036455	92.022391351708	0.011607435516993
0	2036461	92.022612768239	0.011828852047998
0	2036466	92.022927163547	0.012143247355993
0	2037084	93.010783916391	0
0	2037085	93.010783916391	0
0	2037104	93.021241129403	0.010457213012003
0	2037109	93.02131972823	0.010535811839006
0	2037114	93.021698342415	0.010914426024002
0	2037119	93.021855540069	0.011071623678006
0	2037124	93.022155555427	0.011371639036
0	2037129	93.022391351908	0.011607435517007
0	2037135	93.022612768439	0.011828852048012
0	2037140	93.022927163747	0.012143247356008
0	2037758	94.010783916591	0
0	2037759	94.010783916591	0
0	2037778	94.021241129603	0.010457213012003
0	2037783	94.02131972843	0.010535811839006
0	2037788	94.021698342615	0.010914426024002
0	2037793	94.021855540269	0.011071623678006
0	2037798	94.022155555627	0.011371639036
0	2037803	94.022391352108	0.011607435517007
0	2037809	94.022612768639	0.011828852047998
0	2037814	94.022927163947	0.012143247356008
0	2038438	95.010783916791	0
0	2038439	95.010783916791	0
0	2038458	95.021241129803	0.010457213012003
0	2038463	95.02131972863	0.010535811839006
0	2038468	95.021698342815	0.010914426024002
0	2038473	95.021855540469	0.011071623678006
0	2038478	95.022155555827	0.011371639036
0	2038483	95.022391352308	0.011607435516993
0	2038489	95.022612768839	0.011828852047998
0	2038494	95.022927164147	0.012143247355993
0	2039112	96.010783916991	0
0	2039113	96.010783916991	0
0	2039132	96.021241130003	0.010457213011989
0	2039137	96.02131972883	0.010535811838992
0	2039142	96.021698343015	0.010914426024002
0	2039147	96.021855540669	0.011071623677992
0	2039152	96.022155556027	0.011371639036
0	2039157	96.022391352508	0.011607435516993
0	2039163	96.022612769039	0.011828852047998
0	2039168	96.022927164347	0.012143247355993
0	2039786	97.010783917191	0
0	2039787	97.010783917191	0
0	2039806	97.021241130203	0.010457213012003
0	2039811	97.02131972903	0.010535811839006
0	2039816	97.021698343215	0.010914426024002
0	2039821	97.021855540869	0.011071623678006
0	2039826	97.022155556227	0.011371639036
0	2039831	97.022391352708	0.011607435517007
0	2039837	97.022612769239	0.011828852048012
0	2039842	97.022927164547	0.012143247356008
0	2040460	98.010783917391	0
0	2040461	98.010783917391	0
0	2040480	98.021241130403	0.010457213012003
0	2040485	98.02131972923	0.010535811839006
0	2040490	98.021698343415	0.010914426024002
0	2040495	98.021855541069	0.011071623678006
0	2040500	98.022155556427	0.011371639036
0	2040505	98.022391352908	0.011607435517007
0	2040511	98.022612769439	0.011828852047998
0	2040516	98.022927164747	0.012143247356008
0	2041134	99.010783917591	0
0	2041135	99.010783917591	0
0	2041154	99.021241130603	0.010457213012003
0	2041159	99.02131972943	0.010535811839006
0	2041164	99.021698343615	0.010914426024002
0	2041169	99.021855541269	0.011071623677992
0	2041174	99.022155556627	0.011371639036
0	2041179	99.022391353108	0.011607435516993
0	2041185	99.022612769639	0.011828852047998
0	2041190	99.022927164947	0.012143247355993
0	2041814	100.010783917791	0
0	2041815	100.010783917791	0
0	2041834	100.021241130803	0.010457213011989
0	2041839	100.02131972963	0.010535811838992
0	2041844	100.021698343815	0.010914426024002
0	2041849	100.021855541469	0.011071623677992
0	2041854	100.022155556827	0.011371639036
0	2041859	100.022391353308	0.011607435516993
0	2041865	100.022612769839	0.011828852047998
0	2041870	100.022927165147	0.012143247355993
0	2042488	101.010783917991	0
0	2042489	101.010783917991	0
0	2042508	101.021241131003	0.010457213012003
0	2042513	101.02131972983	0.010535811839006
0	2042518	101.021698344015	0.010914426024002
0	2042523	101.021855541669	0.011071623678006
0	2042528	101.022155557027	0.011371639036
0	2042533	101.022391353508	0.011607435517007
0	2042539	101.022612770039	0.011828852048012
0	2042544	101.022927165347	0.012143247356008
0	2043162	102.010783918191	0
0	2043163	102.010783918191	0
0	2043182	102.021241131203	0.010457213012003
0	2043187	102.02131973003	0.010535811839006
0	2043192	102.021698344215	0.010914426024002
0	2043197	102.021855541869	0.011071623678006
0	2043202	102.022155557227	0.011371639036
0	2043207	102.022391353708	0.011607435517007
0	2043213	102.022612770239	0.011828852047998
0	2043218	102.022927165547	0.012143247356008
0	2043836	103.010783918391	0
0	2043837	103.010783918391	0
0	2043856	103.021241131403	0.010457213012003
0	2043861	103.02131973023	0.010535811839006
0	2043866	103.021698344415	0.010914426024002
0	2043871	103.021855542069	0.011071623677992
0	2043876	103.022155557427	0.011371639036
0	2043881	103.022391353908	0.011607435516993
0	2043887	103.022612770439	0.011828852047998
0	2043892	103.022927165747	0.012143247355993
0	2044510	104.010783918591	0
0	2044511	104.010783918591	0
0	2044530	104.021241131603	0.010457213011989
0	2044535	104.02131973043	0.010535811838992
0	2044540	104.021698344615	0.010914426024002
0	2044545	104.021855542269	0.011071623677992
0	2044550	104.022155557627	0.011371639036
0	2044555	104.022391354108	0.011607435516993
0	2044561	104.022612770639	0.011828852047998
0	2044566	104.022927165947	0.012143247355993
0	2045190	105.010783918791	0
0	2045191	105.010783918791	0
0	2045210	105.021241131803	0.010457213012003
0	2045215	105.02131973063	0.010535811839006
0	2045220	105.021698344815	0.010914426024002
0	2045225	105.021855542469	0.011071623678006
0	2045230	105.022155557827	0.011371639036
0	2045235	105.022391354308	0.011607435517007
0	2045241	105.022612770839	0.011828852048012
0	2045246	105.022927166147	0.012143247356008
0	2045864	106.010783918991	0
0	2045865	106.010783918991	0
0	2045884	106.021241132003	0.010457213012003
0	2045889	106.02131973083	0.010535811839006
0	2045894	106.021698345015	0.010914426024002
0	2045899	106.021855542669	0.011071623678006
0	2045904	106.022155558027	0.011371639036
0	2045909	106.022391354508	0.011607435517007
0	2045915	106.022612771039	0.011828852047998
0	2045920	106.022927166347	0.012143247356008
0	2046538	107.010783919191	0
0	2046539	107.010783919191	0
0	2046558	107.021241132203	0.010457213012003
0	2046563	107.02131973103	0.010535811839006
0	2046568	107.021698345215	0.010914426024002
0	2046573	107.021855542869	0.011071623677992
0	2046578	107.022155558227	0.011371639036
0	2046583	107.022391354708	0.011607435516993
0	2046589	107.022612771239	0.011828852047998
0	2046594	107.022927166547	0.012143247355993
0	2047212	108.010783919391	0
0	2047213	108.010783919391	0
0	2047232	108.021241132403	0.010457213011989
0	2047237	108.02131973123	0.010535811838992
0	2047242	108.021698345415	0.010914426024002
0	2047247	108.021855543069	0.011071623677992
0	2047252	108.022155558427	0.011371639036
0	2047257	108.022391354908	0.011607435516993
0	2047263	108.022612771439	0.011828852047998
0	2047268	108.022927166747	0.012143247355993
0	2047886	109.010783919591	0
0	2047887	109.010783919591	0
0	2047906	109.021241132603	0.010457213012003
0	2047911	109.02131973143	0.010535811839006
0	2047916	109.021698345615	0.010914426024002
0	2047921	109.021855543269	0.011071623678006
0	2047926	109.022155558627	0.011371639036
0	2047931	109.022391355108	0.011607435517007
0	2047937	109.022612771639	0.011828852048012
0	2047942	109.022927166947	0.012143247356008
0	2048566	110.010783919791	0
0	2048567	110.010783919791	0
0	2048586	110.021241132803	0.010457213012003
0	2048591	110.02131973163	0.010535811839006
0	2048596	110.021698345815	0.010914426024002
0	2048601	110.021855543469	0.011071623678006
0	2048606	110.022155558827	0.011371639036
0	2048611	110.022391355308	0.011607435517007
0	2048617	110.022612771839	0.011828852047998
0	2048622	110.022927167147	0.012143247356008
0	2049240	111.010783919991	0
0	2049241	111.010783919991	0
0	2049260	111.021241133003	0.010457213012003
0	2049265	111.02131973183	0.010535811839006
0	2049270	111.021698346015	0.010914426024002
0	2049275	111.021855543669	0.011071623677992
0	2049280	111.022155559027	0.011371639036
0	2049285	111.022391355508	0.011607435516993
0	2049291	111.022612772039	0.011828852047998
0	2049296	111.022927167347	0.012143247355993
0	2049914	112.010783920191	0
0	2049915	112.010783920191	0
0	2049934	112.021241133203	0.010457213011989
0	2049939	112.02131973203	0.010535811838992
0	2049944	112.021698346215	0.010914426024002
0	2049949	112.021855543869	0.011071623677992
0	2049954	112.022155559227	0.011371639036
0	2049959	112.022391355708	0.011607435516993
0	2049965	112.022612772239	0.011828852047998
0	2049970	112.022927167547	0.012143247355993
0	2050588	113.010783920391	0
0	2050589	113.010783920391	0
0	2050608	113.021241133403	0.010457213012003
0	2050613	113.02131973223	0.010535811839006
0	2050618	113.021698346415	0.010914426024002
0	2050623	113.021855544069	0.011071623678006
0	2050628	113.022155559427	0.011371639036
0	2050633	113.022391355908	0.011607435517007
0	2050639	113.022612772439	0.011828852048012
0	2050644	113.022927167747	0.012143247356008
0	2051262	114.010783920591	0
0	2051263	114.010783920591	0
0	2051282	114.021241133603	0.010457213012003
0	2051287	114.02131973243	0.010535811839006
0	2051292	114.021698346615	0.010914426024002
0	2051297	114.021855544269	0.011071623678006
0	2051302	114.022155559627	0.011371639036
0	2051307	114.022391356108	0.011607435517007
0	2051313	114.022612772639	0.011828852047998
0	2051318	114.022927167947	0.012143247356008
0	2051942	115.010783920791	0
0	2051943	115.010783920791	0
0	2051962	115.021241133803	0.010457213012003
0	2051967	115.02131973263	0.010535811839006
0	2051972	115.021698346815	0.010914426024002
0	2051977	115.021855544469	0.011071623677992
0	2051982	115.022155559827	0.011371639036
0	2051987	115.022391356308	0.011607435516993
0	2051993	115.022612772839	0.011828852047998
0	2051998	115.022927168147	0.012143247355993
0	2052616	116.010783920991	0
0	2052617	116.010783920991	0
0	2052636	116.021241134003	0.010457213011989
0	2052641	116.02131973283	0.010535811838992
0	2052646	116.021698347015	0.010914426024002
0	2052651	116.021855544669	0.011071623677992
0	2052656	116.022155560027	0.011371639036
0	2052661	116.022391356508	0.011607435516993
0	2052667	116.022612773039	0.011828852047998
0	2052672	116.022927168347	0.012143247355993
0	2053290	117.010783921191	0
0	2053291	117.010783921191	0
0	2053310	117.021241134203	0.010457213012003
0	2053315	117.02131973303	0.010535811839006
0	2053320	117.021698347215	0.010914426024002
0	2053325	117.021855544869	0.011071623678006
0	2053330	117.022155560227	0.011371639036
0	2053335	117.022391356708	0.011607435517007
0	2053341	117.022612773239	0.011828852048012
0	2053346	117.022927168547	0.012143247356008
0	2053964	118.010783921391	0
0	2053965	118.010783921391	0
0	2053984	118.021241134403	0.010457213012003
0	2053989	118.02131973323	0.010535811839006
0	2053994	118.021698347415	0.010914426024002
0	2053999	118.021855545069	0.011071623678006
0	2054004	118.022155560427	0.011371639036
0	2054009	118.022391356908	0.011607435517007
0	2054015	118.022612773439	0.011828852047998
0	2054020	118.022927168747	0.012143247356008
0	2054638	119.010783921591	0
0	2054639	119.010783921591	0
0	2054658	119.021241134603	0.010457213012003
0	2054663	119.02131973343	0.010535811838992
0	2054668	119.021698347615	0.010914426024002
0	2054673	119.021855545269	0.011071623677992
0	2054678	119.022155560627	0.011371639036
0	2054683	119.022391357108	0.011607435516993
0	2054689	119.022612773639	0.011828852047998
0	2054694	119.022927168947	0.012143247355993
0	2055318	120.010783921791	0
0	2055319	120.010783921791	0
0	2055338	120.021241134803	0.010457213011989
0	2055343	120.02131973363	0.010535811838992
0	2055348	120.021698347815	0.010914426024002
0	2055353	120.021855545469	0.011071623677992
0	2055358	120.022155560827	0.011371639036
0	2055363	120.022391357308	0.011607435516993
0	2055369	120.022612773839	0.011828852047998
0	2055374	120.022927169147	0.012143247355993
0	2056019	121.010783921991	0
0	2056020	121.010783921991	0
0	2056092	121.021241135003	0.010457213012003
0	2056097	121.02131973383	0.010535811839006
0	2056109	121.021698348015	0.010914426024002
0	2056114	121.021855545669	0.011071623678006
0	2056120	121.022155561027	0.011371639036
0	2056125	121.022391357508	0.011607435517007
0	2056130	121.022612774039	0.011828852048012
0	2056143	121.022927169347	0.012143247356008
0	2063530	122.012117255074	0
0	2063531	122.012117255074	0
0	2063621	122.022574468086	0.010457213011989
0	2063626	122.022653066913	0.010535811838992
0	2063636	122.023031681098	0.010914426024002
0	2063642	122.023188878752	0.011071623677992
0	2063651	122.02348889411	0.011371639036
0	2063656	122.023724690591	0.011607435516993
0	2063666	122.023946107122	0.011828852047998
0	2063672	122.02426050243	0.012143247355993
0	2072519	123.013228366085	0
0	2072520	123.013228366085	0
0	2072627	123.023685579097	0.010457213011989
0	2072636	123.023764177924	0.010535811838992
0	2072645	123.024142792109	0.010914426024002
0	2072652	123.024299989763	0.011071623677992
0	2072657	123.024600005121	0.011371639036
0	2072669	123.024835801602	0.011607435516993
0	2072674	123.025057218133	0.011828852047998
0	2072680	123.025371613441	0.012143247355993
0	2082989	124.014180746637	0
0	2082990	124.014180746637	0
0	2083117	124.024637959649	0.010457213012003
0	2083122	124.024716558476	0.010535811839006
0	2083135	124.025095172661	0.010914426024002
0	2083140	124.025252370315	0.011071623678006
0	2083145	124.025552385673	0.011371639036
0	2083154	124.025788182154	0.011607435517007
0	2083163	124.026009598685	0.011828852047998
0	2083168	124.026323993993	0.012143247356008
0	2094976	125.01501407957	0
0	2094977	125.01501407957	0
0	2095117	125.025471292582	0.010457213012003
0	2095122	125.025549891409	0.010535811839006
0	2095130	125.025928505594	0.010914426024002
0	2095136	125.026085703248	0.011071623678006
0	2095148	125.026385718606	0.011371639036
0	2095153	125.026621515087	0.011607435517007
0	2095159	125.026842931618	0.011828852047998
0	2095171	125.027157326926	0.012143247356008
0	2109516	126.01501407992	0
0	2109517	126.01501407992	0
0	2109684	126.025471292932	0.010457213012003
0	2109690	126.025549891759	0.010535811839006
0	2109706	126.025928505944	0.010914426024002
0	2109712	126.026085703598	0.011071623678006
0	2109725	126.026385718956	0.011371639036
0	2109730	126.026621515437	0.011607435517007
0	2109735	126.026842931968	0.011828852047998
0	2109752	126.027157327276	0.012143247356008
0	2125701	127.01501408042	0
0	2125702	127.01501408042	0
0	2125887	127.025471293432	0.010457213011989
0	2125892	127.025549892259	0.010535811838992
0	2125906	127.025928506444	0.010914426024002
0	2125912	127.026085704098	0.011071623677992
0	2125920	127.026385719456	0.011371639036
0	2125930	127.026621515937	0.011607435516993
0	2125942	127.026842932468	0.011828852047998
0	2125952	127.027157327776	0.012143247355993
0	2142323	128.015620140926	0
0	2142324	128.015620140926	0
0	2142465	128.026077353938	0.010457213012018
0	2142470	128.026155952765	0.01053581183902
0	2142483	128.02653456695	0.010914426024016
0	2142488	128.026691764604	0.011071623678021
0	2142500	128.026991779962	0.011371639036014
0	2142505	128.027227576443	0.011607435517021
0	2142516	128.027448992974	0.011828852048012
0	2142522	128.027763388282	0.012143247356022
0	2155310	129.015620141726	0
0	2155311	129.015620141726	0
0	2155439	129.026077354738	0.010457213011989
0	2155444	129.026155953565	0.010535811838992
0	2155452	129.02653456775	0.010914426023987
0	2155457	129.026691765404	0.011071623677992
0	2155466	129.026991780762	0.011371639035985
0	2155471	129.027227577243	0.011607435516993
0	2155480	129.027448993774	0.011828852047984
0	2155485	129.027763389082	0.012143247355993
0	2167273	130.015620142076	0
0	2167274	130.015620142076	0
0	2167416	130.026077355088	0.010457213012018
0	2167425	130.026201936567	0.010581794491003
0	2167430	130.0265345681	0.010914426024016
0	2167439	130.026737748406	0.011117606330004
0	2167444	130.026991781112	0.011371639036014
0	2167453	130.027273560245	0.011653418169004
0	2167458	130.027448994124	0.011828852048012
0	2167614	130.038331633721	0.022711491644998
0	2180124	131.016096332152	0
0	2180125	131.016096332152	0
0	2180277	131.026553545164	0.010457213012018
0	2180285	131.02681100808	0.010714675928
0	2180290	131.027010758176	0.010914426024016
0	2180299	131.027346819919	0.011250487767001
0	2180304	131.027467971188	0.011371639036014
0	2180313	131.027882631758	0.011786299606001
0	2180318	131.0279251842	0.011828852048012
0	2180484	131.038807823797	0.022711491644998
0	2195130	132.016540775596	0
0	2195131	132.016540775596	0
0	2195313	132.027076587435	0.01053581183902
0	2195325	132.027612399274	0.011071623678021
0	2195337	132.028148211113	0.011607435517021
0	2195584	132.042396881616	0.025856106020001
0	2195593	132.042854094628	0.026313319031999
0	2195602	132.04331130764	0.026770532044026
0	2195611	132.043768520652	0.027227745056024
0	2195795	132.054651160249	0.03811038465301
0	2211669	133.016540776396	0
0	2211670	133.016540776396	0
0	2211853	133.027076588235	0.010535811838992
0	2211868	133.027612400074	0.011071623677992
0	2211883	133.028148211913	0.011607435516993
0	2213802	133.141994175476	0.12545339907999
0	2213814	133.142451388488	0.12591061209199
0	2213823	133.1429086015	0.12636782510401
0	2213832	133.143365814512	0.12682503811601
0	2214021	133.154248454109	0.137707677713
0	2228807	134.016540777046	0
0	2228808	134.016540777046	0
0	2228988	134.026997990058	0.010457213011989
0	2229000	134.02745520307	0.010914426023987
0	2229012	134.027912416082	0.011371639035985
0	2229021	134.028369629094	0.011828852047984
0	2229210	134.039252268691	0.022711491644998
0	2233632	134.304383851417	0.28784307437098
0	2233645	134.304919663256	0.28837888620998
0	2233659	134.305455475095	0.28891469804898
0	2248876	135.016911146416	0
0	2248877	135.016911146416	0
0	2249503	135.045865842174	0.028954695758017
0	2249512	135.046323055186	0.029411908770015
0	2249524	135.046780268198	0.029869121782014
0	2249533	135.04723748121	0.030326334794012
0	2249737	135.058120120807	0.041208974390997
0	2249749	135.058577333819	0.041666187402996
0	2249765	135.059034546831	0.042123400414994
0	2249777	135.059491759843	0.042580613426992
0	2267535	136.016911146466	0
0	2267536	136.016911146466	0
0	2274194	136.259766389034	0.242855242568
0	2274209	136.260223602046	0.24331245558002
0	2274228	136.260680815058	0.24376966859202
0	2274242	136.26113802807	0.24422688160402
0	2274635	136.272020667667	0.25510952120101
0	2274654	136.272477880679	0.25556673421301
0	2274672	136.272935093691	0.256023947225
0	2274690	136.273392306703	0.256481160237
0	2293292	137.017244478799	0
0	2293293	137.017244478799	0
0	2293536	137.027701691811	0.010457213011989
0	2293553	137.028158904823	0.010914426023987
0	2293564	137.028616117835	0.011371639035985
0	2293582	137.029073330847	0.011828852047984
0	2293858	137.039955970444	0.022711491644998
0	2293871	137.040413183456	0.023168704656996
0	2293887	137.040870396468	0.023625917668994
0	2293901	137.04132760948	0.024083130680992
0	2313492	138.017561937666	0
0	2313493	138.017561937666	0
0	2319300	138.307384787983	0.28982285031702
0	2319313	138.307842000995	0.29028006332902
0	2319329	138.308299214007	0.29073727634102
0	2319342	138.308756427019	0.29119448935302
0	2319644	138.319639066616	0.30207712895
0	2319663	138.320096279628	0.302534341962
0	2319679	138.32055349264	0.302991554974
0	2319697	138.321010705652	0.303448767986
0	2336721	139.017864967869	0
0	2336722	139.017864967869	0
0	2356263	139.652505469287	0.634640501418
0	2356279	139.652962682299	0.63509771443
0	2356291	139.653419895311	0.635554927442
0	2356306	139.653877108323	0.636012140454
0	2356618	139.66475974792	0.64689478005099
0	2356635	139.665216960932	0.64735199306298
0	2356649	139.665674173944	0.64780920607498
0	2356666	139.666131386956	0.64826641908701
0	2367471	140.018154821341	0
0	2367472	140.018154821341	0
0	2367802	140.02869063318	0.010535811838992
0	2367828	140.029226445019	0.011071623677992
0	2367853	140.029762256858	0.011607435516993
0	2367875	140.030298068697	0.012143247355993
0	2388683	140.922186003611	0.90403118226999
0	2388695	140.922643216623	0.90448839528199
0	2388704	140.923100429635	0.90494560829399
0	2388716	140.923557642647	0.90540282130598
0	2390684	141.018154822141	0
0	2390685	141.018154822141	0
0	2390912	141.02869063398	0.01053581183902
0	2390931	141.029226445819	0.011071623678021
0	2390947	141.029762257658	0.011607435517021
0	2390962	141.030298069497	0.012143247356022
0	2416888	142.018154823391	0
0	2416889	142.018154823391	0
0	2417231	142.02869063523	0.010535811838992
0	2417253	142.029226447069	0.011071623677992
0	2417274	142.029762258908	0.011607435516993
0	2417294	142.030298070747	0.012143247355993
0	2431441	142.473052540315	1.454897718174
0	2431453	142.473509753327	1.455354931186
0	2431468	142.473966966339	1.455812144198
0	2431483	142.474424179351	1.45626935721
0	2451496	143.018411232047	0
0	2451497	143.018411232047	0
0	2459403	143.226626234862	0.20821500281502
0	2459419	143.227162046701	0.20875081465402
0	2459435	143.22769785854	0.209286626493
0	2459452	143.228233670379	0.209822438332
0	2477691	143.844691576315	1.826536752924
0	2477707	143.845148789327	1.826993965936
0	2477722	143.845606002339	1.827451178948
0	2477735	143.846063215351	1.82790839196
0	2482037	144.018658144627	0
0	2482038	144.018658144627	0
0	2482274	144.029193956466	0.010535811838992
0	2482289	144.029729768305	0.011071623677992
0	2482304	144.030265580144	0.011607435516993
0	2482325	144.030801391983	0.012143247355993
0	2517337	145.018896239465	0
0	2517338	145.018896239465	0
0	2518003	145.034817046551	2.016405814504
0	2518021	145.035274259563	2.016863027516
0	2518041	145.035731472575	2.017320240528
0	2518057	145.036188685587	2.01777745354
0	2547457	146.003651418979	1.984993274352
0	2547473	146.004108631991	1.985450487364
0	2547488	146.004565845003	1.985907700376
0	2547504	146.005023058015	1.986364913388
0	2547957	146.019126122472	0
0	2547958	146.019126122472	0
0	2556759	146.302211515815	1.28331527635
0	2556775	146.302668728827	1.283772489362
0	2556792	146.303125941839	1.284229702374
0	2556811	146.303583154851	1.284686915386
0	2557158	146.314465794448	1.295569554983
0	2557177	146.31492300746	1.296026767995
0	2557197	146.315380220472	1.296483981007
0	2557216	146.315837433484	1.296941194019
0	2579018	147.019348343694	0
0	2579019	147.019348343694	0
0	2590163	147.375747667991	1.356621545519
0	2590178	147.376204881003	1.357078758531
0	2590195	147.376662094015	1.357535971543
0	2590208	147.377119307027	1.357993184555
0	2590558	147.388001946624	1.368875824152
0	2590577	147.388459159636	1.369333037164
0	2590594	147.388916372648	1.369790250176
0	2590614	147.38937358566	1.370247463188
0	2608816	148.012188180695	0.99283983700101
0	2608828	148.012645393707	0.99329705001301
0	2608841	148.013102606719	0.99375426302501
0	2608857	148.013559819731	0.99421147603701
0	2609031	148.019563395407	0
0	2609032	148.019563395407	0
0	2609148	148.024442459328	1.005094115634
0	2609163	148.02489967234	1.005551328646
0	2609178	148.025356885352	1.006008541658
0	2609198	148.025814098364	1.00646575467
0	2638794	149.01977172714	0
0	2638795	149.01977172714	0
0	2665296	149.767886146775	1.748322751368
0	2665311	149.768343359787	1.74877996438
0	2665326	149.768800572799	1.749237177392
0	2665341	149.769257785811	1.749694390404
0	2665705	149.780140425408	1.760577030001
0	2665725	149.78059763842	1.761034243013
0	2665742	149.781054851432	1.761491456025
0	2665759	149.781512064444	1.761948669037
0	2674140	150.019973747242	0
0	2674141	150.019973747242	0
0	2674490	150.030509559081	0.010535811838992
0	2674509	150.03104537092	0.011071623677992
0	2674528	150.031581182759	0.011607435516993
0	2674543	150.032116994598	0.012143247355993
0	2699116	151.020169823773	0
0	2699117	151.020169823773	0
0	2699390	151.030705635612	0.01053581183902
0	2699412	151.031241447451	0.011071623678021
0	2699427	151.03177725929	0.011607435517021
0	2699445	151.032313071129	0.012143247356022
0	2727160	151.832660108967	2.812888381827
0	2727176	151.833117321979	2.813345594839
0	2727195	151.833574534991	2.813802807851
0	2727211	151.834031748003	2.814260020863
0	2727591	151.8449143876	2.82514266046
0	2727612	151.845371600612	2.825599873472
0	2727629	151.845828813624	2.826057086484
0	2727649	151.846286026636	2.826514299496
0	2734609	152.020360297463	0
0	2734610	152.020360297463	0
0	2738322	152.103269540503	0.082909243040007
0	2738351	152.103805352342	0.083445054879007
0	2738376	152.104341164181	0.083980866718008
0	2738401	152.10487697602	0.084516678557009
0	2775590	153.020545481648	0
0	2775591	153.020545481648	0
0	2786915	153.349741690825	0.32919620917701
0	2786935	153.350277502664	0.32973202101601
0	2786951	153.350813314503	0.33026783285501
0	2786970	153.351349126342	0.33080364469402
0	2797206	153.649167405643	3.629193658401
0	2797226	153.649624618655	3.629650871413
0	2797243	153.650081831667	3.630108084425
0	2797263	153.650539044679	3.630565297437
0	2811442	154.020725660828	0
0	2811443	154.020725660828	0
0	2841486	154.680698298901	0.65997263807301
0	2841512	154.68123411074	0.66050844991202
0	2841536	154.681769922579	0.66104426175102
0	2841564	154.682305734418	0.66158007359002
0	2857048	155.020901096624	0
0	2857049	155.020901096624	0
0	2858024	155.042062684625	0.021161588001007
0	2878135	155.515053707615	4.494883883842
0	2878155	155.515510920627	4.495341096854
0	2878171	155.515968133639	4.495798309866
0	2878187	155.516425346651	4.496255522878
0	2895989	156.020901096974	0
0	2895990	156.020901096974	0
0	2896753	156.042062684975	0.021161588001007
0	2940217	157.020901098974	0
0	2940218	157.020901098974	0
0	2941433	157.042062686975	0.021161588000979
0	2968153	157.511245718007	5.490885420544
0	2968178	157.511702931019	5.491342633556
0	2968205	157.512160144031	5.491799846568
0	2968232	157.512617357043	5.49225705958
0	2986924	158.020901100974	0
0	2986925	158.020901100974	0
0	2987681	158.042062688975	0.021161588001007
0	3016207	158.694512993063	5.673967511415
0	3016224	158.694970206075	5.674424724427
0	3016243	158.695427419087	5.674881937439
0	3016262	158.695884632099	5.675339150451
0	3027197	159.020901102974	0
0	3027198	159.020901102974	0
0	3027788	159.042062690975	0.021161588001007
0	3043534	159.533498870083	5.512773209255
0	3043559	159.533956083095	5.513230422267
0	3043578	159.534413296107	5.513687635279
0	3043596	159.534870509119	5.514144848291
0	3060343	159.971966148591	4.951065051967
0	3060362	159.972423361603	4.951522264979
0	3060379	159.972880574615	4.951979477991
0	3060399	159.973337787627	4.952436691003
0	3060815	159.984220427224	4.9633193306
0	3060838	159.984677640236	4.963776543612
0	3060862	159.985134853248	4.964233756624
0	3062258	160.020901104974	0
0	3062259	160.020901104974	0
0	3095718	161.020901106974	0
0	3095719	161.020901106974	0
0	3100927	161.157519488707	5.136618391733
0	3100943	161.157976701719	5.137075604745
0	3100962	161.158433914731	5.137532817757
0	3100979	161.158891127743	5.137990030769
0	3101402	161.16977376734	5.148872670366
0	3101422	161.170230980352	5.149329883378
0	3101445	161.170688193364	5.14978709639
0	3129055	162.020901108974	0
0	3129056	162.020901108974	0
0	3159294	162.926933845147	5.906032746173
0	3159309	162.927391058159	5.906489959185
0	3159328	162.927848271171	5.906947172197
0	3159346	162.928305484183	5.907404385209
0	3159753	162.93918812378	5.918287024806
0	3159775	162.939645336792	5.918744237818
0	3159795	162.940102549804	5.91920145083
0	3162903	163.020901110974	0
0	3162904	163.020901110974	0
0	3197652	164.020901112974	0
0	3197653	164.020901112974	0
0	3222505	164.925411920599	6.904510819625
0	3222517	164.925869133611	6.904968032637
0	3222532	164.926326346623	6.905425245649
0	3222547	164.926783559635	6.905882458661
0	3222849	164.937666199232	6.916765098258
0	3222867	164.938123412244	6.91722231127
0	3222885	164.938580625256	6.917679524282
0	3225201	165.020901114974	0
0	3225202	165.020901114974	0
0	3225605	165.031436926813	0.010535811838992
0	3225633	165.031972738652	0.011071623677992
0	3225657	165.032508550491	0.011607435516993
0	3225680	165.03304436233	0.012143247355993
0	3263815	166.020901116974	0
0	3263816	166.020901116974	0
0	3264228	166.031436928813	0.01053581183902
0	3264253	166.031972740652	0.011071623678021
0	3264276	166.032508552491	0.011607435517021
0	3264299	166.03304436433	0.012143247356022
0	3284012	166.661449727163	7.640548624189
0	3284027	166.661906940175	7.641005837201
0	3284039	166.662364153187	7.641463050213
0	3284054	166.662821366199	7.641920263225
0	3284375	166.673704005796	7.652802902822
0	3284395	166.674161218808	7.653260115834
0	3284414	166.67461843182	7.653717328846
0	3296765	167.020901118974	0
0	3296766	167.020901118974	0
0	3311383	167.433050085401	0.412148966427
0	3311405	167.43358589724	0.412684778266
0	3311424	167.434121709079	0.413220590105
0	3311448	167.434657520918	0.413756401944
0	3336411	168.020901120974	0
0	3336412	168.020901120974	0
0	3358794	168.501458892367	0.48055777139299
0	3358818	168.501994704206	0.481093583232
0	3358843	168.502530516045	0.481629395071
0	3358870	168.503066327884	0.48216520691
0	3365225	168.638896004063	8.617994899089
0	3365249	168.639353217075	8.618452112101
0	3365270	168.639810430087	8.618909325113
0	3365292	168.640267643099	8.619366538125
0	3365790	168.651150282696	8.630249177722
0	3365814	168.651607495708	8.630706390734
0	3365835	168.65206470872	8.631163603746
0	3365856	168.652521921732	8.631620816758
0	3381692	169.020901122974	0
0	3381693	169.020901122974	0
0	3417237	170.020901124974	0
0	3417238	170.020901124974	0
0	3423171	170.187122937861	1.166221814887
0	3423190	170.1876587497	1.166757626726
0	3423209	170.188194561539	1.167293438565
0	3423228	170.188730373378	1.167829250404
0	3452143	170.843577147927	9.822676040953
0	3452162	170.844034360939	9.823133253965
0	3452181	170.844491573951	9.823590466977
0	3452205	170.844948786963	9.824047679989
0	3452700	170.85583142656	9.834930319586
0	3452721	170.856288639572	9.835387532598
0	3452746	170.856745852584	9.83584474561
0	3452767	170.857203065596	9.836301958622
0	3460433	171.020901126974	0
0	3460434	171.020901126974	0
0	3502286	172.020901128974	0
0	3502287	172.020901128974	0
0	3531496	172.841140797355	10.820239688381
0	3531515	172.841598010367	10.820696901393
0	3531528	172.842055223379	10.821154114405
0	3531548	172.842512436391	10.821611327417
0	3531946	172.853395075988	10.832493967014
0	3531965	172.853852289	10.832951180026
0	3531988	172.854309502012	10.833408393038
0	3532010	172.854766715024	10.83386560605
0	3537918	173.020901130974	0
0	3537919	173.020901130974	0
0	3584059	174.020901132974	0
0	3584060	174.020901132974	0
0	3624625	174.981812119539	11.960911008565
0	3624640	174.982269332551	11.961368221577
0	3624652	174.982726545563	11.961825434589
0	3624667	174.983183758575	11.962282647601
0	3624973	174.994066398172	11.973165287198
0	3624992	174.994523611184	11.97362250021
0	3625010	174.994980824196	11.974079713222
0	3625028	174.995438037208	11.974536926234
0	3625769	175.020901134974	0
0	3625770	175.020901134974	0
0	3626069	175.031436946813	0.010535811838992
0	3626092	175.031972758652	0.011071623677992
0	3626112	175.032508570491	0.011607435516993
0	3626384	175.042062722975	0.021161588001007
0	3653476	176.020901136974	0
0	3653477	176.020901136974	0
0	3653773	176.031436948813	0.010535811838992
0	3653796	176.031972760652	0.011071623677992
0	3653818	176.032508572491	0.011607435516993
0	3654078	176.042062724975	0.021161588000979
0	3695585	177.020901138974	0
0	3695586	177.020901138974	0
0	3696808	177.042062726975	0.021161588001007
0	3707892	177.245146816579	0.22424567760501
0	3707916	177.245682628418	0.22478148944401
0	3707940	177.246218440257	0.22531730128301
0	3716245	177.426072881691	13.405171768717
0	3716264	177.426530094703	13.405628981729
0	3716286	177.426987307715	13.406086194741
0	3716308	177.427444520727	13.406543407753
0	3716797	177.438327160324	13.41742604735
0	3716821	177.438784373336	13.417883260362
0	3716845	177.439241586348	13.418340473374
0	3716866	177.43969879936	13.418797686386
0	3747687	178.020901140974	0
0	3747688	178.020901140974	0
0	3748904	178.042062728975	0.021161588001007
0	3769102	178.479514194712	0.45861305373802
0	3769128	178.480050006551	0.45914886557699
0	3769156	178.48058581839	0.45968467741599
0	3790476	179.020901142974	0
0	3790477	179.020901142974	0
0	3791228	179.042062730975	0.021161588001007
0	3814229	179.543636506966	0.52273536399201
0	3814255	179.544172318805	0.52327117583101
0	3814280	179.544708130644	0.52380698766999
0	3832386	179.866675939747	14.845774824773
0	3832413	179.867133152759	14.846232037785
0	3832440	179.867590365771	14.846689250797
0	3832465	179.868047578783	14.847146463809
0	3841157	180.020901144974	0
0	3841158	180.020901144974	0
0	3894184	181.020901146974	0
0	3894185	181.020901146974	0
0	3902061	181.159109201551	1.138208056577
0	3902096	181.15964501339	1.138743868416
0	3902130	181.160180825229	1.139279680255
0	3902161	181.160716637068	1.139815492094
0	3939770	181.999117427715	15.978216310741
0	3939789	181.999574640727	15.978673523753
0	3939805	182.000031853739	15.979130736765
0	3939823	182.000489066751	15.979587949777
0	3940566	182.020901148974	0
0	3940567	182.020901148974	0
0	3947364	182.214122712542	1.193221565568
0	3947383	182.214658524381	1.193757377407
0	3947403	182.21519433622	1.194293189246
0	3947423	182.215730148059	1.194829001085
0	3976760	183.020901150974	0
0	3976761	183.020901150974	0
0	3993339	183.376834403172	1.355933254198
0	3993363	183.377370215011	1.356469066037
0	3993390	183.37790602685	1.357004877876
0	3993417	183.378441838689	1.357540689715
0	4008731	183.710008518619	16.689107399645
0	4008753	183.710465731631	16.689564612657
0	4008775	183.710922944643	16.690021825669
0	4008795	183.711380157655	16.690479038681
0	4019772	184.020901152974	0
0	4019773	184.020901152974	0
0	4055480	185.020901154974	0
0	4055481	185.020901154974	0
0	4065934	185.317569468811	17.296668347837
0	4065947	185.318026681823	17.297125560849
0	4065967	185.318483894835	17.297582773861
0	4065986	185.318941107847	17.298039986873
0	4069335	185.41399101505	2.393089864076
0	4069358	185.414526826889	2.393625675915
0	4069378	185.415062638728	2.394161487754
0	4069400	185.415598450567	2.394697299593
0	4090162	186.000645708739	16.979744585765
0	4090182	186.001102921751	16.980201798777
0	4090198	186.001560134763	16.980659011789
0	4090218	186.002017347775	16.981116224801
0	4090921	186.020901156974	0
0	4090922	186.020901156974	0
0	4111696	186.603252458555	16.582351333581
0	4111712	186.603709671567	16.582808546593
0	4111730	186.604166884579	16.583265759605
0	4111749	186.604624097591	16.583722972617
0	4112140	186.615506737188	16.594605612214
0	4112161	186.6159639502	16.595062825226
0	4112185	186.616421163212	16.595520038238
0	4112202	186.616878376224	16.59597725125
0	4114007	186.66779071831	2.646889565336
0	4114026	186.668326530149	2.647425377175
0	4114045	186.668862341988	2.647961189014
0	4114064	186.669398153827	2.648497000853
0	4126480	187.020901158974	0
0	4126481	187.020901158974	0
0	4150214	187.689590575067	16.668689448093
0	4150227	187.690047788079	16.669146661105
0	4150247	187.690505001091	16.669603874117
0	4150266	187.690962214103	16.670061087129
0	4150665	187.7018448537	16.680943726726
0	4150688	187.702302066712	16.681400939738
0	4150711	187.702759279724	16.68185815275
0	4150730	187.703216492736	16.682315365762
0	4162089	188.020901160974	0
0	4162090	188.020901160974	0
0	4199527	189.020901162974	0
0	4199528	189.020901162974	0
0	4202117	189.076774853475	17.055873724501
0	4202136	189.077232066487	17.056330937513
0	4202158	189.077689279499	17.056788150525
0	4202181	189.078146492511	17.057245363537
0	4202669	189.089029132108	17.068128003134
0	4202693	189.08948634512	17.068585216146
0	4202718	189.089943558132	17.069042429158
0	4202739	189.090400771144	17.06949964217
0	4246107	190.020901164974	0
0	4246108	190.020901164974	0
0	4290236	191.020901166974	0
0	4290237	191.020901166974	0
0	4295627	191.171724874459	18.150823743485
0	4295646	191.172182087471	18.151280956497
0	4295666	191.172639300483	18.151738169509
0	4295686	191.173096513495	18.152195382521
0	4296083	191.183979153092	18.163078022118
0	4296106	191.184436366104	18.16353523513
0	4296127	191.184893579116	18.163992448142
0	4296148	191.185350792128	18.164449661154
0	4304755	191.426871472308	1.405970307334
0	4304777	191.427407284147	1.406506119173
0	4304798	191.427943095986	1.407041931012
0	4304816	191.428478907825	1.407577742851
0	4304834	191.429014719664	0.40811355269
0	4304852	191.429550531503	0.408649364529
0	4304877	191.430086343342	0.409185176368
0	4304896	191.430622155181	0.409720988207
0	4322634	192.020901168974	0
0	4322635	192.020901168974	0
0	4323048	192.031436980813	0.010535811838992
0	4323071	192.031972792652	0.011071623677992
0	4323094	192.032508604491	0.011607435516993
0	4323121	192.03304441633	0.012143247355993
0	4364413	193.022067837481	0
0	4364710	193.032519892518	0.010452055037007
0	4364725	193.032821381703	0.010753544222013
0	4364730	193.032832704353	0.010764866871995
0	4364735	193.032916787193	0.010848949711999
0	4364759	193.033574925925	0.011507088444006
0	4364764	193.033597571225	0.011529733743998
0	4364789	193.034328470147	0.012260632665999
0	4364795	193.034362438097	0.012294600616002
0	4364822	193.035127304969	0.013059467488006
0	4378578	193.512655495899	19.491754362925
0	4378588	193.513112708911	19.492211575937
0	4378601	193.513569921923	19.492668788949
0	4378615	193.514027134935	19.493126001961
0	4378910	193.524909774532	19.504008641558
0	4378925	193.525366987544	19.50446585457
0	4378941	193.525824200556	19.504923067582
0	4378956	193.526281413568	19.505380280594
0	4392373	194.022067837681	0
0	4392566	194.032519892718	0.010452055037007
0	4392572	194.032821381903	0.010753544222013
0	4392577	194.032832704553	0.010764866871995
0	4392582	194.032841644437	0.010773806755992
0	4392598	194.033574926125	0.011507088444006
0	4392603	194.033597571425	0.011529733743998
0	4392619	194.034328470347	0.012260632665999
0	4392627	194.034362438297	0.012294600616002
0	4392644	194.035127305169	0.013059467488006
0	4402450	195.022067837881	0
0	4402451	195.022067837881	0
0	4402452	195.022067837881	0
0	4402453	195.022067837881	0
0	4402568	195.032493264466	0.010425426584987
0	4402573	195.032832704753	0.010764866871995
0	4402581	195.032918691051	0.010850853170012
0	4402591	195.033597571625	0.011529733743998
0	4402606	195.034362438497	0.012294600616002
0	4402616	195.035127305369	0.013059467488006
0	4420319	195.985263464795	20.964362329821
0	4420330	195.985720677807	20.964819542833
0	4420339	195.986177890819	20.965276755845
0	4420348	195.986635103831	20.965733968857
0	4421091	196.022067838081	0
0	4421092	196.022067838081	0
0	4421093	196.022067838081	0
0	4421094	196.022067838081	0
0	4421301	196.032691358925	0.010623520844007
0	4421309	196.032832704953	0.010764866871995
0	4421316	196.03311678551	0.011048947429003
0	4421329	196.033597571825	0.011529733743998
0	4421349	196.034362438697	0.012294600616002
0	4421371	196.035127305569	0.013059467488006
0	4441932	197.022067838281	0
0	4441933	197.022067838281	0
0	4441934	197.022067838281	0
0	4441935	197.022067838281	0
0	4442141	197.032616216169	0.010548377888
0	4442151	197.032832705153	0.010764866871995
0	4442156	197.033041642754	0.010973804472997
0	4442169	197.033597572025	0.011529733743998
0	4442193	197.034362438897	0.012294600616002
0	4442214	197.035127305769	0.013059467488006
0	4454739	198.022067838481	0
0	4454740	198.022067838481	0
0	4454741	198.022067838481	0
0	4454742	198.022067838481	0
0	4454855	198.032493265066	0.010425426584987
0	4454864	198.032832705353	0.010764866871995
0	4454869	198.032918691651	0.010850853169984
0	4454881	198.033597572225	0.011529733743998
0	4454892	198.034362439097	0.012294600616002
0	4454907	198.035127305969	0.013059467487977
0	4455399	198.084785615899	22.063884478925
0	4455405	198.085242828911	22.064341691937
0	4455412	198.085700041923	22.064798904949
0	4455418	198.086157254935	22.065256117961
0	4470187	199.022067838681	0
0	4470188	199.022067838681	0
0	4470189	199.022067838681	0
0	4470190	199.022067838681	0
0	4470389	199.032493265266	0.010425426585016
0	4470399	199.032832705553	0.010764866872023
0	4470404	199.032918691851	0.010850853170012
0	4470422	199.033597572425	0.011529733744027
0	4470439	199.034362439297	0.012294600616002
0	4470463	199.035127306169	0.013059467488006
0	4483600	199.664913785371	22.644012646397
0	4483609	199.665370998383	22.644469859409
0	4483620	199.665828211395	22.644927072421
0	4483629	199.666285424407	22.645384285433
0	4487379	200.032493265466	0.010425426585016
0	4487387	200.032519893918	0.010452055037007
0	4487393	200.032832705753	0.010764866872023
0	4487398	200.032918692051	0.010850853170012
0	4487406	200.032971948955	0.010904110074023
0	4487412	200.033424003992	0.01135616511101
0	4487421	200.033597572625	0.011529733743998
0	4487427	200.033876059029	0.011808220147998
0	4487439	200.034362439497	0.012294600616002
0	4487449	200.035127306369	0.013059467488006
0	4496391	200.937794810779	22.916893669805
0	4496397	200.938252023791	22.917350882817
0	4496403	200.938709236803	22.917808095829
0	4496410	200.939166449815	22.918265308841
0	4497376	201.032493265666	0.010425426585016
0	4497382	201.032519894118	0.010452055037007
0	4497387	201.032832705953	0.010764866871995
0	4497395	201.032918692251	0.010850853170012
0	4497401	201.032971949155	0.010904110073994
0	4497410	201.033424004192	0.01135616511101
0	4497415	201.033597572825	0.011529733743998
0	4497425	201.033876059229	0.011808220147998
0	4497434	201.034362439697	0.012294600616002
0	4497443	201.035127306569	0.013059467488006
0	4505708	201.869594929235	22.848693786261
0	4505714	201.870052142247	22.849150999273
0	4505721	201.870509355259	22.849608212285
0	4505727	201.870966568271	22.850065425297
0	4507360	202.032493265866	0.010425426585016
0	4507365	202.032519894318	0.010452055037007
0	4507373	202.032832706153	0.010764866871995
0	4507379	202.032918692451	0.010850853170012
0	4507384	202.032971949355	0.010904110073994
0	4507393	202.033424004392	0.01135616511101
0	4507398	202.033597573025	0.011529733743998
0	4507408	202.033876059429	0.011808220147998
0	4507417	202.034362439897	0.012294600616002
0	4507430	202.035127306769	0.013059467488006
0	4509562	202.250910581243	22.230009436269
0	4509568	202.251367794255	22.230466649281
0	4509574	202.251825007267	22.230923862293
0	4509581	202.252282220279	22.231381075305
0	4517326	203.032493266066	0.010425426584987
0	4517331	203.032519894518	0.010452055037007
0	4517341	203.032832706353	0.010764866871995
0	4517346	203.032918692651	0.010850853170012
0	4517351	203.032971949555	0.010904110073994
0	4517360	203.033424004592	0.01135616511101
0	4517365	203.033597573225	0.011529733743998
0	4517375	203.033876059629	0.011808220147998
0	4517384	203.034362440097	0.012294600616002
0	4517398	203.035127306969	0.013059467488006
0	4522955	203.600603392667	22.579702245693
0	4522961	203.601060605679	22.580159458705
0	4522967	203.601517818691	22.580616671717
0	4522973	203.601975031703	22.581073884729
0	4527261	204.032493266266	0.010425426584987
0	4527266	204.032519894718	0.010452055037007
0	4527275	204.032832706553	0.010764866871995
0	4527280	204.032918692851	0.010850853169984
0	4527285	204.032971949755	0.010904110073994
0	4527294	204.033424004792	0.011356165110982
0	4527302	204.033597573425	0.011529733743998
0	4527309	204.033876059829	0.011808220147998
0	4527318	204.034362440297	0.012294600616002
0	4527331	204.035127307169	0.013059467488006
0	4531079	204.415356980051	22.394455831077
0	4531086	204.415814193063	22.394913044089
0	4531092	204.416271406075	22.395370257101
0	4531098	204.416728619087	22.395827470113
0	4536847	204.994188653243	21.973287502269
0	4536853	204.994645866255	21.973744715281
0	4536859	204.995103079267	21.974201928293
0	4536866	204.995560292279	21.974659141305
0	4537159	205.022067839881	0
0	4537160	205.022067839881	0
0	4537161	205.022067839881	0
0	4537162	205.022067839881	0
0	4537276	205.032493266466	0.010425426584987
0	4537286	205.032832706753	0.010764866871995
0	4537291	205.032918693051	0.010850853169984
0	4537304	205.033597573625	0.011529733743998
0	4537314	205.034362440497	0.012294600616002
0	4537327	205.035127307369	0.013059467488006
0	4547152	206.022067840081	0
0	4547153	206.022067840081	0
0	4547154	206.022067840081	0
0	4547155	206.022067840081	0
0	4547266	206.032493266666	0.010425426584987
0	4547276	206.032832706953	0.010764866871995
0	4547281	206.032918693251	0.010850853169984
0	4547294	206.033597573825	0.011529733743998
0	4547307	206.034362440697	0.012294600616002
0	4547317	206.035127307569	0.013059467487977
0	4551082	206.415206694539	22.394305541565
0	4551089	206.415663907551	22.394762754577
0	4551095	206.416121120563	22.395219967589
0	4551101	206.416578333575	22.395677180601
0	4554165	206.727025968723	21.706124813749
0	4554172	206.727483181735	21.706582026761
0	4554178	206.727940394747	21.707039239773
0	4554184	206.728397607759	21.707496452785
0	4554302	206.739280247356	21.718379092382
0	4554312	206.739737460368	21.718836305394
0	4554321	206.74019467338	21.719293518406
0	4554331	206.740651886392	21.719750731418
0	4557137	207.022067840281	0
0	4557138	207.022067840281	0
0	4557139	207.022067840281	0
0	4557140	207.022067840281	0
0	4557252	207.032493266866	0.010425426585016
0	4557258	207.032832707153	0.010764866872023
0	4557267	207.032918693451	0.010850853170012
0	4557277	207.033597574025	0.011529733744027
0	4557291	207.034362440897	0.012294600616002
0	4557300	207.035127307769	0.013059467488006
0	4565480	207.863657516555	21.842756359581
0	4565487	207.864114729567	21.843213572593
0	4565493	207.864571942579	21.843670785605
0	4565499	207.865029155591	21.844127998617
0	4565615	207.875911795188	21.855010638214
0	4565624	207.8763690082	21.855467851226
0	4565633	207.876826221212	21.855925064238
0	4565643	207.877283434224	21.85638227725
0	4567093	208.022067840481	0
0	4567094	208.022067840481	0
0	4567095	208.022067840481	0
0	4567096	208.022067840481	0
0	4567209	208.032493267066	0.010425426585016
0	4567217	208.032832707353	0.010764866872023
0	4567223	208.032918693651	0.010850853170012
0	4567233	208.033597574225	0.011529733743998
0	4567248	208.034362441097	0.012294600616002
0	4567262	208.035127307969	0.013059467488006
0	4577077	209.022067840681	0
0	4577078	209.022067840681	0
0	4577079	209.022067840681	0
0	4577080	209.022067840681	0
0	4577195	209.032493267266	0.010425426585016
0	4577205	209.032832707553	0.010764866871995
0	4577210	209.032918693851	0.010850853170012
0	4577219	209.033597574425	0.011529733743998
0	4577233	209.034362441297	0.012294600616002
0	4577247	209.035127308169	0.013059467488006
0	4579896	209.185917547259	22.165016388285
0	4579905	209.186374760271	22.165473601297
0	4579914	209.186831973283	22.165930814309
0	4579924	209.187289186295	22.166388027321
0	4580136	209.198171825892	22.177270666918
0	4580147	209.198629038904	22.17772787993
0	4580159	209.199086251916	22.178185092942
0	4580170	209.199543464928	22.178642305954
0	4597553	210.032519895918	0.010452055037007
0	4597558	210.032553786365	0.010485945483993
0	4597568	210.032832707753	0.010764866871995
0	4597573	210.032971950955	0.010904110073994
0	4597578	210.03297921295	0.010911372068989
0	4597591	210.033424005992	0.01135616511101
0	4597599	210.033597574625	0.011529733743998
0	4597610	210.033876061029	0.011808220147998
0	4597624	210.034362441497	0.012294600616002
0	4597647	210.035127308369	0.013059467488006
0	4618449	211.032493267666	0.010425426584987
0	4618454	211.032519896118	0.010452055037007
0	4618464	211.032832707953	0.010764866871995
0	4618469	211.032918694251	0.010850853170012
0	4618474	211.032971951155	0.010904110073994
0	4618487	211.033424006192	0.01135616511101
[...]
0	25868033	1134.120091798882	0.01208589788007
0	25868131	1134.128960837405	0.020954936403086
0	25878234	1135.108005901202	0
0	25878235	1135.108005901202	0
0	25878236	1135.108005901202	0
0	25878237	1135.108005901202	0
0	25878353	1135.118423080778	0.010417179576052
0	25878366	1135.118840260354	0.010834359152113
0	25878376	1135.11925743993	0.011251538727947
0	25878386	1135.119674619506	0.011668718304009
0	25878395	1135.120091799082	0.01208589788007
0	25878490	1135.128960837605	0.020954936403086
0	25884410	1135.701950260251	11.594444370079
0	25884416	1135.702388314678	11.594882424506
0	25884422	1135.702826369105	11.595320478933
0	25884429	1135.703264423532	11.59575853336
0	25888615	1136.108005901402	0
0	25888616	1136.108005901402	0
0	25888617	1136.108005901402	0
0	25888618	1136.108005901402	0
0	25888737	1136.118423080978	0.010417179575825
0	25888751	1136.118840260554	0.010834359151886
0	25888761	1136.11925744013	0.011251538727947
0	25888771	1136.119674619706	0.011668718304009
0	25888780	1136.120091799282	0.012085897879842
0	25888875	1136.128960837805	0.020954936402859
0	25892936	1136.523740365303	11.416234473131
0	25892942	1136.52417841973	11.416672527558
0	25892948	1136.524616474157	11.417110581985
0	25892955	1136.525054528584	11.417548636412
0	25898998	1137.108005901602	0
0	25898999	1137.108005901602	0
0	25899000	1137.108005901602	0
0	25899001	1137.108005901602	0
0	25899120	1137.118423081178	0.010417179576052
0	25899133	1137.118840260754	0.010834359152113
0	25899143	1137.11925744033	0.011251538727947
0	25899153	1137.119674619906	0.011668718304009
0	25899162	1137.120091799482	0.01208589788007
0	25899259	1137.128960838005	0.020954936403086
0	25909390	1138.108005901802	0
0	25909391	1138.108005901802	0
0	25909392	1138.108005901802	0
0	25909393	1138.108005901802	0
0	25909511	1138.118423081378	0.010417179576052
0	25909524	1138.118840260954	0.010834359151886
0	25909534	1138.11925744053	0.011251538727947
0	25909544	1138.119674620106	0.011668718304009
0	25909553	1138.120091799682	0.01208589788007
0	25909651	1138.128960838205	0.020954936402859
0	25909758	1138.139285092079	12.031779197907
0	25909765	1138.139723146506	12.032217252334
0	25909771	1138.140161200933	12.032655306761
0	25909777	1138.14059925536	12.033093361188
0	25919760	1139.108005902002	0
0	25919761	1139.108005902002	0
0	25919762	1139.108005902002	0
0	25919763	1139.108005902002	0
0	25919885	1139.118423081578	0.010417179576052
0	25919897	1139.118840261154	0.010834359152113
0	25919908	1139.11925744073	0.011251538728175
0	25919918	1139.119674620306	0.011668718304009
0	25919927	1139.120091799882	0.01208589788007
0	25920023	1139.128960838405	0.020954936403086
0	25921073	1139.230916724163	12.123410827991
0	25921080	1139.23135477859	12.123848882418
0	25921086	1139.231792833017	12.124286936845
0	25921092	1139.232230887444	12.124724991272
0	25930140	1140.108005902202	0
0	25930141	1140.108005902202	0
0	25930142	1140.108005902202	0
0	25930143	1140.108005902202	0
0	25930262	1140.118423081778	0.010417179576052
0	25930272	1140.118840261354	0.010834359152113
0	25930282	1140.11925744093	0.011251538727947
0	25930293	1140.119674620506	0.011668718304009
0	25930303	1140.120091800082	0.01208589788007
0	25930400	1140.128960838605	0.020954936403086
0	25933969	1140.476743514551	12.369237616379
0	25933975	1140.477181568978	12.369675670806
0	25933981	1140.477619623405	12.370113725233
0	25933988	1140.478057677832	12.37055177966
0	25940515	1141.108005902402	0
0	25940516	1141.108005902402	0
0	25940517	1141.108005902402	0
0	25940518	1141.108005902402	0
0	25940631	1141.118423081978	0.010417179575825
0	25940644	1141.118840261554	0.010834359151886
0	25940655	1141.11925744113	0.011251538727947
0	25940665	1141.119674620706	0.011668718304009
0	25940674	1141.120091800282	0.012085897879842
0	25940770	1141.128960838805	0.020954936402859
0	25946968	1142.108005902602	0
0	25946969	1142.108005902602	0
0	25946970	1142.108005902602	0
0	25946971	1142.108005902602	0
0	25946988	1142.118423082178	0.010417179576052
0	25946997	1142.118840261754	0.010834359152113
0	25947003	1142.11925744133	0.011251538727947
0	25947009	1142.119674620906	0.011668718304009
0	25947014	1142.120091800482	0.01208589788007
0	25947024	1142.128960839005	0.020954936403086
0	25947639	1143.108005902802	0
0	25947640	1143.108005902802	0
0	25947641	1143.108005902802	0
0	25947642	1143.108005902802	0
0	25947659	1143.118423082378	0.010417179576052
0	25947668	1143.118840261954	0.010834359151886
0	25947674	1143.11925744153	0.011251538727947
0	25947680	1143.119674621106	0.011668718304009
0	25947685	1143.120091800682	0.01208589788007
0	25947695	1143.128960839205	0.020954936402859
0	25948310	1144.108005903002	0
0	25948311	1144.108005903002	0
0	25948312	1144.108005903002	0
0	25948313	1144.108005903002	0
0	25948330	1144.118423082578	0.010417179576052
0	25948339	1144.118840262154	0.010834359152113
0	25948345	1144.11925744173	0.011251538728175
0	25948351	1144.119674621306	0.011668718304009
0	25948356	1144.120091800882	0.01208589788007
0	25948366	1144.128960839405	0.020954936403086
0	25948987	1145.108005903202	0
0	25948988	1145.108005903202	0
0	25948989	1145.108005903202	0
0	25948990	1145.108005903202	0
0	25949007	1145.118423082778	0.010417179576052
0	25949016	1145.118840262354	0.010834359152113
0	25949022	1145.11925744193	0.011251538727947
0	25949028	1145.119674621506	0.011668718304009
0	25949033	1145.120091801082	0.01208589788007
0	25949043	1145.128960839605	0.020954936403086
0	25949658	1146.108005903402	0
0	25949659	1146.108005903402	0
0	25949660	1146.108005903402	0
0	25949661	1146.108005903402	0
0	25949678	1146.118423082978	0.010417179575825
0	25949687	1146.118840262554	0.010834359151886
0	25949693	1146.11925744213	0.011251538727947
0	25949699	1146.119674621706	0.011668718304009
0	25949704	1146.120091801282	0.012085897879842
0	25949714	1146.128960839805	0.020954936402859
0	25950329	1147.108005903602	0
0	25950330	1147.108005903602	0
0	25950331	1147.108005903602	0
0	25950332	1147.108005903602	0
0	25950349	1147.118423083178	0.010417179576052
0	25950358	1147.118840262754	0.010834359152113
0	25950364	1147.11925744233	0.011251538728175
0	25950370	1147.119674621906	0.011668718304009
0	25950375	1147.120091801482	0.01208589788007
0	25950385	1147.128960840005	0.020954936403086
0	25951000	1148.108005903802	0
0	25951001	1148.108005903802	0
0	25951002	1148.108005903802	0
0	25951003	1148.108005903802	0
0	25951020	1148.118423083378	0.010417179576052
0	25951029	1148.118840262954	0.010834359151886
0	25951035	1148.11925744253	0.011251538727947
0	25951041	1148.119674622106	0.011668718304009
0	25951046	1148.120091801682	0.01208589788007
0	25951056	1148.128960840205	0.020954936403086
0	25951671	1149.108005904002	0
0	25951672	1149.108005904002	0
0	25951673	1149.108005904002	0
0	25951674	1149.108005904002	0
0	25951691	1149.118423083578	0.010417179575825
0	25951700	1149.118840263154	0.010834359151886
0	25951706	1149.11925744273	0.011251538727947
0	25951712	1149.119674622306	0.011668718303781
0	25951717	1149.120091801882	0.012085897879842
0	25951727	1149.128960840405	0.020954936402859
0	25952348	1150.108005904202	0
0	25952349	1150.108005904202	0
0	25952350	1150.108005904202	0
0	25952351	1150.108005904202	0
0	25952368	1150.118423083778	0.010417179576052
0	25952377	1150.118840263354	0.010834359152113
0	25952383	1150.11925744293	0.011251538727947
0	25952389	1150.119674622506	0.011668718304009
0	25952394	1150.120091802082	0.01208589788007
0	25952404	1150.128960840605	0.020954936403086
0	25953019	1151.108005904402	0
0	25953020	1151.108005904402	0
0	25953021	1151.108005904402	0
0	25953022	1151.108005904402	0
0	25953039	1151.118423083978	0.010417179576052
0	25953048	1151.118840263554	0.010834359151886
0	25953054	1151.11925744313	0.011251538727947
0	25953060	1151.119674622706	0.011668718304009
0	25953065	1151.120091802282	0.012085897879842
0	25953075	1151.128960840805	0.020954936402859
0	25953690	1152.108005904602	0
0	25953691	1152.108005904602	0
0	25953692	1152.108005904602	0
0	25953693	1152.108005904602	0
0	25953710	1152.118423084178	0.010417179576052
0	25953719	1152.118840263754	0.010834359152113
0	25953725	1152.11925744333	0.011251538728175
0	25953731	1152.119674622906	0.011668718304009
0	25953736	1152.120091802482	0.01208589788007
0	25953746	1152.128960841005	0.020954936403086
0	25954361	1153.108005904802	0
0	25954362	1153.108005904802	0
0	25954363	1153.108005904802	0
0	25954364	1153.108005904802	0
0	25954381	1153.118423084378	0.010417179576052
0	25954390	1153.118840263954	0.010834359151886
0	25954396	1153.11925744353	0.011251538727947
0	25954402	1153.119674623106	0.011668718304009
0	25954407	1153.120091802682	0.01208589788007
0	25954417	1153.128960841205	0.020954936403086
0	25955032	1154.108005905002	0
0	25955033	1154.108005905002	0
0	25955034	1154.108005905002	0
0	25955035	1154.108005905002	0
0	25955052	1154.118423084578	0.010417179575825
0	25955061	1154.118840264154	0.010834359151886
0	25955067	1154.11925744373	0.011251538727947
0	25955073	1154.119674623306	0.011668718304009
0	25955078	1154.120091802882	0.012085897879842
0	25955088	1154.128960841405	0.020954936402859
0	25955709	1155.108005905202	0
0	25955710	1155.108005905202	0
0	25955711	1155.108005905202	0
0	25955712	1155.108005905202	0
0	25955729	1155.118423084778	0.010417179576052
0	25955738	1155.118840264354	0.010834359152113
0	25955744	1155.11925744393	0.011251538727947
0	25955750	1155.119674623506	0.011668718304009
0	25955755	1155.120091803082	0.01208589788007
0	25955765	1155.128960841605	0.020954936403086
0	25956380	1156.108005905402	0
0	25956381	1156.108005905402	0
0	25956382	1156.108005905402	0
0	25956383	1156.108005905402	0
0	25956400	1156.118423084978	0.010417179576052
0	25956409	1156.118840264554	0.010834359151886
0	25956415	1156.11925744413	0.011251538727947
0	25956421	1156.119674623706	0.011668718304009
0	25956426	1156.120091803282	0.012085897879842
0	25956436	1156.128960841805	0.020954936402859
0	25957051	1157.108005905602	0
0	25957052	1157.108005905602	0
0	25957053	1157.108005905602	0
0	25957054	1157.108005905602	0
0	25957071	1157.118423085178	0.010417179576052
0	25957080	1157.118840264754	0.010834359152113
0	25957086	1157.11925744433	0.011251538728175
0	25957092	1157.119674623906	0.011668718304009
0	25957097	1157.120091803482	0.01208589788007
0	25957107	1157.128960842005	0.020954936403086
0	25957722	1158.108005905802	0
0	25957723	1158.108005905802	0
0	25957724	1158.108005905802	0
0	25957725	1158.108005905802	0
0	25957742	1158.118423085378	0.010417179576052
0	25957751	1158.118840264954	0.010834359152113
0	25957757	1158.11925744453	0.011251538727947
0	25957763	1158.119674624106	0.011668718304009
0	25957768	1158.120091803682	0.01208589788007
0	25957778	1158.128960842205	0.020954936403086
0	25958393	1159.108005906002	0
0	25958394	1159.108005906002	0
0	25958395	1159.108005906002	0
0	25958396	1159.108005906002	0
0	25958413	1159.118423085578	0.010417179575825
0	25958422	1159.118840265154	0.010834359151886
0	25958428	1159.11925744473	0.011251538727947
0	25958434	1159.119674624306	0.011668718304009
0	25958439	1159.120091803882	0.012085897879842
0	25958449	1159.128960842405	0.020954936402859
0	25959070	1160.108005906202	0
0	25959071	1160.108005906202	0
0	25959072	1160.108005906202	0
0	25959073	1160.108005906202	0
0	25959090	1160.118423085778	0.010417179576052
0	25959099	1160.118840265354	0.010834359152113
0	25959105	1160.11925744493	0.011251538727947
0	25959111	1160.119674624506	0.011668718304009
0	25959116	1160.120091804082	0.01208589788007
0	25959126	1160.128960842605	0.020954936403086
0	25959741	1161.108005906402	0
0	25959742	1161.108005906402	0
0	25959743	1161.108005906402	0
0	25959744	1161.108005906402	0
0	25959761	1161.118423085978	0.010417179576052
0	25959770	1161.118840265554	0.010834359151886
0	25959776	1161.11925744513	0.011251538727947
0	25959782	1161.119674624706	0.011668718304009
0	25959787	1161.120091804282	0.01208589788007
0	25959797	1161.128960842805	0.020954936402859
0	25960412	1162.108005906602	0
0	25960413	1162.108005906602	0
0	25960414	1162.108005906602	0
0	25960415	1162.108005906602	0
0	25960432	1162.118423086178	0.010417179576052
0	25960441	1162.118840265754	0.010834359152113
0	25960447	1162.11925744533	0.011251538728175
0	25960453	1162.119674624906	0.011668718304009
0	25960458	1162.120091804482	0.01208589788007
0	25960468	1162.128960843005	0.020954936403086
0	25961083	1163.108005906802	0
0	25961084	1163.108005906802	0
0	25961085	1163.108005906802	0
0	25961086	1163.108005906802	0
0	25961103	1163.118423086378	0.010417179576052
0	25961112	1163.118840265954	0.010834359152113
0	25961118	1163.11925744553	0.011251538727947
0	25961124	1163.119674625106	0.011668718304009
0	25961129	1163.120091804682	0.01208589788007
0	25961139	1163.128960843205	0.020954936403086
0	25961754	1164.108005907002	0
0	25961755	1164.108005907002	0
0	25961756	1164.108005907002	0
0	25961757	1164.108005907002	0
0	25961774	1164.118423086578	0.010417179575825
0	25961783	1164.118840266154	0.010834359151886
0	25961789	1164.11925744573	0.011251538727947
0	25961795	1164.119674625306	0.011668718304009
0	25961800	1164.120091804882	0.012085897879842
0	25961810	1164.128960843405	0.020954936402859
0	25962431	1165.108005907202	0
0	25962432	1165.108005907202	0
0	25962433	1165.108005907202	0
0	25962434	1165.108005907202	0
0	25962451	1165.118423086778	0.010417179576052
0	25962460	1165.118840266354	0.010834359152113
0	25962466	1165.11925744593	0.011251538728175
0	25962472	1165.119674625506	0.011668718304009
0	25962477	1165.120091805082	0.01208589788007
0	25962487	1165.128960843605	0.020954936403086
0	25963102	1166.108005907402	0
0	25963103	1166.108005907402	0
0	25963104	1166.108005907402	0
0	25963105	1166.108005907402	0
0	25963122	1166.118423086978	0.010417179576052
0	25963131	1166.118840266554	0.010834359151886
0	25963137	1166.11925744613	0.011251538727947
0	25963143	1166.119674625706	0.011668718304009
0	25963148	1166.120091805282	0.01208589788007
0	25963158	1166.128960843805	0.020954936403086
0	25963773	1167.108005907602	0
0	25963774	1167.108005907602	0
0	25963775	1167.108005907602	0
0	25963776	1167.108005907602	0
0	25963793	1167.118423087178	0.010417179576052
0	25963802	1167.118840266754	0.010834359152113
0	25963808	1167.11925744633	0.011251538728175
0	25963814	1167.119674625906	0.011668718304009
0	25963819	1167.120091805482	0.01208589788007
0	25963829	1167.128960844005	0.020954936403086
0	25964444	1168.108005907802	0
0	25964445	1168.108005907802	0
0	25964446	1168.108005907802	0
0	25964447	1168.108005907802	0
0	25964464	1168.118423087378	0.010417179576052
0	25964473	1168.118840266954	0.010834359152113
0	25964479	1168.11925744653	0.011251538727947
0	25964485	1168.119674626106	0.011668718304009
0	25964490	1168.120091805682	0.01208589788007
0	25964500	1168.128960844205	0.020954936403086
0	25965115	1169.108005908002	0
0	25965116	1169.108005908002	0
0	25965117	1169.108005908002	0
0	25965118	1169.108005908002	0
0	25965135	1169.118423087578	0.010417179575825
0	25965144	1169.118840267154	0.010834359151886
0	25965150	1169.11925744673	0.011251538727947
0	25965156	1169.119674626306	0.011668718304009
0	25965161	1169.120091805882	0.012085897879842
0	25965171	1169.128960844405	0.020954936402859
0	25965792	1170.108005908202	0
0	25965793	1170.108005908202	0
0	25965794	1170.108005908202	0
0	25965795	1170.108005908202	0
0	25965812	1170.118423087778	0.010417179576052
0	25965821	1170.118840267354	0.010834359152113
0	25965827	1170.11925744693	0.011251538728175
0	25965833	1170.119674626506	0.011668718304009
0	25965838	1170.120091806082	0.01208589788007
0	25965848	1170.128960844605	0.020954936403086
0	25966463	1171.108005908402	0
0	25966464	1171.108005908402	0
0	25966465	1171.108005908402	0
0	25966466	1171.108005908402	0
0	25966483	1171.118423087978	0.010417179576052
0	25966492	1171.118840267554	0.010834359151886
0	25966498	1171.11925744713	0.011251538727947
0	25966504	1171.119674626706	0.011668718304009
0	25966509	1171.120091806282	0.01208589788007
0	25966519	1171.128960844805	0.020954936403086
0	25967134	1172.108005908602	0
0	25967135	1172.108005908602	0
0	25967136	1172.108005908602	0
0	25967137	1172.108005908602	0
0	25967154	1172.118423088178	0.010417179575825
0	25967163	1172.118840267754	0.010834359151886
0	25967169	1172.11925744733	0.011251538727947
0	25967175	1172.119674626906	0.011668718304009
0	25967180	1172.120091806482	0.012085897879842
0	25967190	1172.128960845005	0.020954936402859
0	25967805	1173.108005908802	0
0	25967806	1173.108005908802	0
0	25967807	1173.108005908802	0
0	25967808	1173.108005908802	0
0	25967825	1173.118423088378	0.010417179576052
0	25967834	1173.118840267954	0.010834359152113
0	25967840	1173.11925744753	0.011251538727947
0	25967846	1173.119674627106	0.011668718304009
0	25967851	1173.120091806682	0.01208589788007
0	25967861	1173.128960845205	0.020954936403086
0	25969097	1174.108005909002	0
0	25969098	1174.108005909002	0
0	25969099	1174.108005909002	0
0	25969100	1174.108005909002	0
0	25969188	1174.118423088578	0.010417179576052
0	25969205	1174.118840268154	0.010834359151886
0	25969216	1174.11925744773	0.011251538727947
0	25969221	1174.119674627306	0.011668718304009
0	25969234	1174.120091806882	0.012085897879842
0	25969307	1174.128960845405	0.020954936402859
0	25977850	1175.109339242085	0
0	25977851	1175.109339242085	0
0	25977852	1175.109339242085	0
0	25977853	1175.109339242085	0
0	25977955	1175.119756421661	0.010417179575825
0	25977972	1175.120173601237	0.010834359151886
0	25977983	1175.120590780813	0.011251538727947
0	25977988	1175.121007960389	0.011668718304009
0	25978001	1175.121425139965	0.012085897879842
0	25978095	1175.130294178488	0.020954936402859
0	25988341	1176.110450353096	0
0	25988342	1176.110450353096	0
0	25988343	1176.110450353096	0
0	25988344	1176.110450353096	0
0	25988466	1176.120867532672	0.010417179576052
0	25988483	1176.121284712248	0.010834359151886
0	25988495	1176.121701891824	0.011251538727947
0	25988507	1176.1221190714	0.011668718304009
0	25988513	1176.122536250976	0.01208589788007
0	25988627	1176.131405289499	0.020954936403086
0	26000600	1177.111402733648	0
0	26000601	1177.111402733648	0
0	26000602	1177.111402733648	0
0	26000603	1177.111402733648	0
0	26000746	1177.121819913224	0.010417179576052
0	26000763	1177.1222370928	0.010834359151886
0	26000769	1177.122654272376	0.011251538727947
0	26000785	1177.123071451952	0.011668718304009
0	26000790	1177.123488631528	0.01208589788007
0	26000922	1177.132357670051	0.020954936403086
0	26014549	1178.112236066581	0
0	26014550	1178.112236066581	0
0	26014551	1178.112236066581	0
0	26014552	1178.112236066581	0
0	26014736	1178.122653246157	0.010417179576052
0	26014749	1178.123070425733	0.010834359152113
0	26014764	1178.123487605309	0.011251538728175
0	26014773	1178.123904784885	0.011668718304009
0	26014792	1178.124321964461	0.01208589788007
0	26014951	1178.133191002984	0.020954936403086
0	26032472	1179.112236066931	0
0	26032473	1179.112236066931	0
0	26032474	1179.112236066931	0
0	26032475	1179.112236066931	0
0	26032674	1179.122653246507	0.010417179576052
0	26032696	1179.123070426083	0.010834359151886
0	26032708	1179.123487605659	0.011251538727947
0	26032720	1179.123904785235	0.011668718304009
0	26032735	1179.124321964811	0.01208589788007
0	26032907	1179.133191003334	0.020954936402859
0	26052337	1180.112236067431	0
0	26052338	1180.112236067431	0
0	26052339	1180.112236067431	0
0	26052340	1180.112236067431	0
0	26052565	1180.122653247007	0.010417179576052
0	26052578	1180.123070426583	0.010834359151886
0	26052597	1180.123487606159	0.011251538727947
0	26052608	1180.123904785735	0.011668718304009
0	26052621	1180.124321965311	0.01208589788007
0	26052818	1180.133191003834	0.020954936402859
0	26074265	1181.112842127937	0
0	26074266	1181.112842127937	0
0	26074267	1181.112842127937	0
0	26074268	1181.112842127937	0
0	26074492	1181.123259307513	0.010417179576052
0	26074513	1181.123676487089	0.010834359151886
0	26074527	1181.124093666665	0.011251538727947
0	26074540	1181.124510846241	0.011668718304009
0	26074554	1181.124928025817	0.012085897879842
0	26074748	1181.13379706434	0.020954936402859

