version 2
run Net10_r-0-20190124-14:40:09-14964
attr configname Net10_r
attr datetime 20190124-14:40:09
attr experiment Net10_r
attr inifile omnetpp.ini
attr iterationvars ""
attr iterationvarsf ""
attr measurement ""
attr network mogp.networks.Net10_r
attr processid 14964
attr repetition 0
attr replication #0
attr resultdir results
attr runnumber 0
attr seedset 0
param **.eventStorage.packetLength "1024 byte"
param **.node[*].operator[*].packetLength "1024 byte"

vector 0 Net10_r.eventStorage "End-to-End Delay" ETV
0	51	5	0
0	58	5.000740740741	0
0	65	5.001481481482	0
0	72	5.002222222223	0
0	79	5.002962962964	0
0	86	5.003703703705	0
0	93	5.004444444446	0
0	100	5.005185185187	0
0	107	5.005925925928	0
0	30345	7.73333333411	0
0	30355	7.733939394716	0
0	30491	7.744970881907	0.010425426585001
0	30505	7.745576942513	0.010425426585
0	30516	7.746183003119	0.010425426585
0	30666	7.757553930597	0.021190293457
0	30688	7.758318797469	0.021349099723
0	30700	7.759083664341	0.021507905989
0	30711	7.759848531213	0.021666712255
0	63890	10.152034633874	0
0	63900	10.15251082435	0
0	64069	10.163412441411	0.010425426585
0	64081	10.163888631887	0.010425426585
0	64093	10.164364822363	0.010425426585
0	64283	10.175605879711	0.021190293457
0	64306	10.176370746583	0.021478969853
0	64321	10.177135613455	0.021767646249
0	64344	10.177900480327	0.022056322645001
0	100497	12.388193363002	0
0	100507	12.388610029669	0
0	100690	12.399452122921	0.010425426585
0	100701	12.399877549506	0.010434186503
0	100712	12.400302976091	0.010442946421
0	100909	12.411493269548	0.021216573210999
0	100924	12.41225813642	0.021564773416001
0	100943	12.413023003292	0.021912973621001
0	100961	12.413787870164	0.022261173826001
0	138760	14.515230400666	0
0	138770	14.515600771036	0
0	138976	14.526396567991	0.010425426585
0	138991	14.526821994576	0.0104804828
0	139004	14.527247421161	0.010535539015001
0	139217	14.538437714618	0.021355462102001
0	139236	14.53920258149	0.021749958604001
0	139258	14.539967448362	0.022144455106
0	139278	14.540732315234	0.022538951607999
0	190072	16.831897066066	0
0	190083	16.832230399399	0
0	190360	16.842989159317	0.010425426585002
0	190371	16.843414585902	0.010517519837002
0	190382	16.843840012487	0.010609613088999
0	190661	16.855030305944	0.021466573212997
0	190683	16.855795172816	0.021898106751998
0	190702	16.856560039688	0.022329640290998
0	190728	16.85732490656	0.022761173829998
0	235122	18.821941797408	0
0	235133	18.822244827711	0
0	235368	18.832973284599	0.010425426584998
0	235382	18.833398711184	0.010547822867
0	235396	18.833824137769	0.010670219148999
0	235654	18.845014431226	0.021557482302999
0	235672	18.845779298098	0.022019318871997
0	235701	18.84654416497	0.022481155441
0	235727	18.847309031842	0.022942992009998
0	288015	20.973418520325	0
0	288025	20.973696298103	0
0	295547	21.267552290791	0.29357821491
0	295561	21.267977717376	0.293725863717
0	295574	21.268403143961	0.293873512524
0	295861	21.279593437418	0.304786028203
0	295891	21.28035830429	0.305273117297
0	295915	21.281123171162	0.305760206391
0	295940	21.281888038034	0.306247295485
0	338366	22.897756127005	0
0	338377	22.898012537261	0
0	347255	23.236426526171	0.338157578654
0	347273	23.236851952756	0.338326594983
0	347287	23.237277379341	0.338495611312
0	347589	23.248467672798	0.349429494513
0	347616	23.24923253967	0.349937951129
0	347638	23.249997406542	0.350446407745
0	347663	23.250762273414	0.350954864361
0	395093	24.964596445625	0
0	395101	24.964834540863	0
0	423922	26.004677314766	1.039604678665
0	423936	26.005102741351	1.039792010012
0	423954	26.005528167936	1.039979341359
0	424281	26.016718461393	1.050931539578
0	424310	26.017483328265	1.051458311212
0	424332	26.018248195137	1.051985082846
0	424364	26.019013062009	1.05251185448
0	446628	26.803223153214	0
0	446636	26.803445375436	0
0	483813	28.114367749781	1.310700152123
0	483827	28.114793176366	1.310903356486
0	483844	28.115218602951	1.311106560849
0	484166	28.126408896408	1.322074632084
0	484195	28.12717376328	1.322617276734
0	484220	28.127938630152	1.323159921384
0	484244	28.128703497024	1.323702566034
0	503864	28.799340981232	0
0	503872	28.799549314565	0
0	559806	30.607704764566	0
0	559820	30.607900842997	0
0	574391	31.089801285271	2.290043637373
0	574407	31.090226711856	2.290260730625
0	574426	31.090652138441	2.290477823877
0	574781	31.101842431898	2.301459784001
0	574813	31.10260729877	2.30201631754
0	574838	31.103372165642	2.302572851079
0	574867	31.104137032514	2.303129384618
0	619798	32.568494365478	0
0	619809	32.568679550663	0
0	646649	33.424116957166	2.816020035738
0	646666	33.424542383751	2.816249383892
0	646680	33.424967810336	2.816478732046
0	647046	33.436158103793	2.827472947072
0	647078	33.436922970665	2.828041735513
0	647103	33.437687837537	2.828610523954
0	647132	33.438452704409	2.829179312395
0	676222	34.356764211854	0
0	676233	34.35693965045	0
0	734462	36.141387017675	0
0	734470	36.141553684342	0
0	748183	36.559510888616	3.990646152768
0	748202	36.559936315201	3.990886394168
0	748216	36.560361741786	3.991126635568
0	748593	36.571552035243	4.00213174384
0	748629	36.572316902115	4.002711425527
0	748657	36.573081768987	4.003291107214
0	748685	36.573846635859	4.003870788901
0	798503	38.068589303576	0
0	798511	38.068748033735	0
0	838509	39.210343939751	4.853228850705
0	838531	39.210769366336	4.853478838694
0	838553	39.211194792921	4.853728826683
0	838952	39.222385086378	4.864743681544
0	838983	39.22314995325	4.86533310982
0	839013	39.223914820122	4.865922538096
0	839044	39.224679686994	4.866511966372
0	861017	39.83597210491	0
0	861025	39.83612714367	0
0	927436	41.744716293758	0
0	927447	41.744864441906	0
0	935258	41.963704797871	5.821984446862
0	935275	41.964130224456	5.82224320678
0	935289	41.964555651041	5.822501966698
0	935703	41.975745944498	5.833525593488
0	935734	41.97651081137	5.834123793693
0	935767	41.977275678242	5.834721993898
0	935798	41.978040545114	5.835320194103
0	992946	43.557973908022	0
0	992954	43.558115751994	0
0	1060877	45.399131820628	0
0	1060885	45.39926787505	0
0	1064827	45.504530264826	7.435623500932
0	1064849	45.504955691411	7.435890197358
0	1064867	45.505381117996	7.436156893784
0	1065304	45.516571411453	7.447188457082
0	1065335	45.517336278325	7.447794593795
0	1065368	45.518101145197	7.448400730508
0	1065406	45.518866012069	7.449006867221
0	1131507	47.281508716063	0
0	1131517	47.281639435017	0
0	1175855	48.436144862061	8.599862679631
0	1175877	48.436570288646	8.600133067456
0	1175899	48.436995715231	8.600403455281
0	1176343	48.448186008688	8.611438709978
0	1176380	48.44895087556	8.61204853809
0	1176411	48.449715742432	8.612658366202
0	1176448	48.450480609304	8.613268194314
0	1199886	49.037300995281	0
0	1199893	49.037426781445	0
0	1275075	50.919451009699	0
0	1275083	50.919574466489	0
0	1333265	52.351771150401	10.606758560347
0	1333290	52.352196576986	10.607035838784
0	1333310	52.352622003571	10.607313117221
0	1333768	52.363812297028	10.61835526253
0	1333806	52.3645771639	10.618971981254
0	1333844	52.365342030772	10.619588699978
0	1333882	52.366106897644	10.620205418702
0	1346215	52.668646293792	0
0	1346226	52.668765341411	0
0	1423022	54.543307586129	0
0	1423030	54.543422528658	0
0	1476212	55.820699524491	12.262441928525
0	1476232	55.821124951076	12.262725511138
0	1476249	55.821550377661	12.263009093751
0	1476727	55.832740671118	12.274057543236
0	1476767	55.83350553799	12.274680566136
0	1476801	55.834270404862	12.275303589036
0	1476837	55.835035271734	12.275926611936
0	1501030	56.402884180183	0
0	1501038	56.402995291294	0
0	1579637	58.226473752053	0
0	1579647	58.226581278935	0
0	1639720	59.602741865141	14.203337935669
0	1639740	59.603167291726	14.203627307832
0	1639760	59.603592718311	14.203916679995
0	1640250	59.614783011768	14.21497091903
0	1640288	59.61554787864	14.21559973148
0	1640324	59.616312745512	14.21622854393
0	1640368	59.617077612384	14.21685735638
0	1657745	60.000247437287	0
0	1657753	60.000353257393	0
0	1716339	61.305805439325	0
0	1716346	61.305908003428	0
0	1716395	61.306831080355	0
0	1716402	61.306933644458	0
0	1716449	61.307754157282	0
0	1716459	61.307856721385	0
0	1716501	61.308677234209	0
0	1716513	61.308779798312	0
0	1716560	61.309600311136	0
0	1716567	61.309702875239	0
0	1716608	61.310523388063	0
0	1716620	61.310625952166	0
0	1716670	61.311549029093	0
0	1716677	61.311651593196	0
0	1716721	61.31247210602	0
0	1716731	61.312574670123	0
0	1716780	61.313395182947	0
0	1716787	61.31349774705	0
0	1716834	61.314318259874	0
0	1716841	61.314420823977	0
0	1716889	61.315241336801	0
0	1716897	61.315343900904	0
0	1716948	61.316266977831	0
0	1716958	61.316369541934	0
0	1717005	61.317190054758	0
0	1717015	61.317292618861	0
0	1717061	61.318113131685	0
0	1717073	61.318215695788	0
0	1717116	61.319036208612	0
0	1717127	61.319138772715	0
0	1717170	61.319959285539	0
0	1717179	61.320061849642	0
0	1717233	61.320984926569	0
0	1717243	61.321087490672	0
0	1717297	61.321908003496	0
0	1717304	61.322010567599	0
0	1717348	61.322831080423	0
0	1717358	61.322933644526	0
0	1717399	61.32375415735	0
0	1717407	61.323856721453	0
0	1717453	61.324677234277	0
0	1717460	61.32477979838	0
0	1717512	61.325702875307	0
0	1717522	61.32580543941	0
0	1717578	61.326625952234	0
0	1717589	61.326728516337	0
0	1717631	61.327549029161	0
0	1717642	61.327651593264	0
0	1717682	61.328472106088	0
0	1717690	61.328574670191	0
0	1717735	61.329395183015	0
0	1717743	61.329497747118	0
0	1717799	61.330420824045	0
0	1717806	61.330523388148	0
0	1717859	61.331343900972	0
0	1717870	61.331446465075	0
0	1754201	63.939540472631	16.65777031866
0	1754209	63.939965899216	16.658065026291
0	1754218	63.940391325801	16.658359733922
0	1754391	63.951581619258	16.669419308425
0	1754407	63.95234648613	16.670053456343
0	1754419	63.953111353002	16.670687604261
0	1754434	63.953876219874	16.671321752179
0	1807822	67.663299371136	18.625746803527
0	1807830	67.663724797721	18.626046443948
0	1807841	67.664150224306	18.626346084369
0	1808015	67.675340517763	18.637410591662
0	1808031	67.676105384635	18.63804967237
0	1808044	67.676870251507	18.638688753078
0	1808061	67.677635118379	18.639327833786
0	1872363	72.263862461326	21.344164538047
0	1872374	72.264287887911	21.344466507842
0	1872382	72.264713314496	21.344768477637
0	1872565	72.275903607953	21.355835314304
0	1872581	72.276668474825	21.356476724386
0	1872594	72.277433341697	21.357118134468
0	1872612	72.278198208569	21.35775954455
0	1928332	76.212246596711	23.543362207681
0	1928341	76.212672023296	23.543668586647
0	1928352	76.213097449881	23.543974965613
0	1928519	76.224287743338	23.555046211451
0	1928535	76.22505261021	23.555692030704
0	1928548	76.225817477082	23.556337849957
0	1928564	76.226582343954	23.55698366921
0	1998859	81.173996857566	26.630459386379
0	1998867	81.174422284151	26.630769870435
0	1998879	81.174847710736	26.631080354491
0	1999048	81.186038004193	26.642155705419
0	1999064	81.186802871065	26.642805629762
0	1999076	81.187567737937	26.643455554105
0	1999092	81.188332604809	26.644105478448
0	2071260	86.231042673461	29.827936271056
0	2071268	86.231468100046	29.82825058653
0	2071279	86.231893526631	29.828564902004
0	2071455	86.243083820088	29.83964408435
0	2071476	86.24384868696	29.840297840111
0	2071489	86.244613553832	29.840951595872
0	2071505	86.245378420704	29.841605351633
0	2138009	91.034959671281	32.808270865464
0	2138017	91.035385097866	32.808588765167
0	2138028	91.035810524451	32.80890666487
0	2138190	91.047000817908	32.819989431445
0	2138206	91.04776568478	32.820646771435
0	2138219	91.048530551652	32.821304111425
0	2138234	91.049295418524	32.821961451415
0	2206249	95.772084695256	35.771625617757
0	2206257	95.772510121841	35.771945224236
0	2206269	95.772935548426	35.772264830715
0	2206431	95.784125841883	35.783349304066
0	2206449	95.784890708755	35.784008350832
0	2206462	95.785655575627	35.784667397598
0	2206480	95.786420442499	35.785326444364
0	2267343	100.091866239346	38.785855671815
0	2267351	100.092291665931	38.786178534297
0	2267363	100.092717092516	38.786501396779
0	2267406	100.094844225441	38.78780801688
0	2267414	100.095269652026	38.788130879362
0	2267424	100.095695078611	38.788453741844
0	2267469	100.097822211536	38.789862926048
0	2267477	100.098247638121	38.79018578853
0	2267486	100.098673064706	38.790508651012
0	2267528	100.100800197631	38.791917835216
0	2267539	100.101225624216	38.792240697698
0	2267548	100.101651050801	38.79256356018
0	2267586	100.103778183726	38.793972744384
0	2267592	100.103907385973	38.797589126133
0	2267600	100.104203610311	38.794295606866
0	2267611	100.104629036896	38.794618469348
0	2267618	100.104672252845	38.798251428902
0	2267633	100.105437119717	38.798913731671
0	2267653	100.106201986589	38.79957603444
0	2267666	100.106756169821	38.796027653552
0	2267673	100.106966853461	38.799622952591
0	2267680	100.107181596406	38.796350516034
0	2267688	100.107607022991	38.796673378516
0	2267696	100.107731720333	38.80028525536
0	2267714	100.108496587205	38.800947558129
0	2267729	100.109261454077	38.801609860898
0	2267749	100.109734155916	38.797979998617
0	2267756	100.110026320949	38.801759343152
0	2267763	100.110159582501	38.798302861099
0	2267771	100.110585009086	38.798625723581
0	2267780	100.110791187821	38.802421645921
0	2267798	100.111556054693	38.80308394869
0	2267820	100.112320921565	38.803746251459
0	2267826	100.112712142011	38.800034907785
0	2267833	100.113085788437	38.803895733713
0	2267840	100.113137568596	38.800357770267
0	2267848	100.113562995181	38.800680632749
0	2267857	100.113850655309	38.804558036482
0	2267875	100.114615522181	38.805220339251
0	2267897	100.115380389053	38.80588264202
0	2267903	100.115690128106	38.802089816953
0	2267912	100.116115554691	38.802412679435
0	2267917	100.116145255925	38.806032124274
0	2267925	100.116540981276	38.802735541917
0	2267934	100.116910122797	38.806694427043
0	2267952	100.117674989669	38.807356729812
0	2267973	100.118439856541	38.808019032581
0	2267979	100.118668114201	38.804144726121
0	2267987	100.119093540786	38.804467588603
0	2267993	100.119204723413	38.808168514835
0	2268003	100.119518967371	38.804790451085
0	2268015	100.119969590285	38.808830817604
0	2268032	100.120734457157	38.809493120373
0	2268054	100.121499324029	38.810155423142
0	2268059	100.121646100296	38.806199635289
0	2268067	100.122071526881	38.806522497771
0	2268073	100.122264190901	38.810202341293
0	2268081	100.122496953466	38.806845360253
0	2268093	100.123029057773	38.810864644062
0	2268113	100.123793924645	38.811526946831
0	2268137	100.124558791517	38.8121892496
0	2268142	100.124624086391	38.808151980354
0	2268150	100.125049512976	38.808474842836
0	2268157	100.125323658389	38.812338731854
0	2268164	100.125474939561	38.808797705318
0	2268177	100.126088525261	38.813001034623
0	2268197	100.126853392133	38.813663337392
0	2268212	100.127602072486	38.810206889522
0	2268219	100.127618259005	38.814325640161
0	2268227	100.128027499071	38.810529752004
0	2268234	100.128383125877	38.814475122415
0	2268241	100.128452925656	38.810852614486
0	2268255	100.129147992749	38.815137425184
0	2268274	100.129912859621	38.815799727953
0	2268288	100.130580058581	38.81226179869
0	2268296	100.130677726493	38.816462030722
0	2268304	100.131005485166	38.812584661172
0	2268313	100.131430911751	38.812907523654
0	2268318	100.131442593365	38.816611512976
0	2268331	100.132207460237	38.817273815745
0	2268351	100.132972327109	38.817936118514
0	2268364	100.133558044676	38.814316707858
0	2268372	100.133737193981	38.818598421283
0	2268380	100.133983471261	38.81463957034
0	2268390	100.134408897846	38.814962432822
0	2268396	100.134502060853	38.818747903537
0	2268414	100.135266927725	38.819410206306
0	2268431	100.136031794597	38.820072509075
0	2268444	100.136536030771	38.816371617026
0	2268453	100.136796661469	38.820734811844
0	2268460	100.136961457356	38.816694479508
0	2268468	100.137386883941	38.81701734199
0	2268474	100.137561528341	38.820781729995
0	2268492	100.138326395213	38.821444032764
0	2268521	100.139091262085	38.822106335533
0	2268527	100.139514016866	38.818323962091
0	2268536	100.139856128957	38.822768638302
0	2268543	100.139939443451	38.818646824573
0	2268551	100.140364870036	38.818969687055
0	2268558	100.140620995829	38.822918120556
0	2268576	100.141385862701	38.823580423325
0	2268598	100.142150729573	38.824242726094
0	2268604	100.142492002961	38.820378871259
0	2268613	100.142915596445	38.824905028863
0	2268620	100.142917429546	38.820701733741
0	2268628	100.143342856131	38.821024596223
0	2268635	100.143680463317	38.825054511117
0	2268654	100.144445330189	38.825716813886
0	2268675	100.145210197061	38.826379116655
0	2268681	100.145469989056	38.822433780427
0	2268689	100.145895415641	38.822756642909
0	2268697	100.145975063933	38.827041419424
0	2268705	100.146320842226	38.823079505391
0	2268712	100.146739930805	38.827190901678
0	2268730	100.147504797677	38.827853204447
0	2268752	100.148269664549	38.828515507216
0	2268757	100.148447975151	38.824488689595
0	2268765	100.148873401736	38.824811552077
0	2268773	100.149034531421	38.829177809985
0	2268783	100.149298828321	38.825134414559
0	2268793	100.149799398293	38.829327292239
0	2268808	100.150564265165	38.829989595008
0	2268832	100.151329132037	38.830651897777
0	2268837	100.151425961246	38.826543598763
0	2268845	100.151851387831	38.826866461245
0	2268854	100.152093998909	38.831314200546
0	2268861	100.152276814416	38.827189323727
0	2268871	100.152858865781	38.831361118697
0	2268891	100.153623732653	38.832023421466
0	2268915	100.154388599525	38.832685724235
0	2268920	100.154403947341	38.828495943828
0	2268928	100.154829373926	38.82881880631
0	2268937	100.155153466397	38.833348027004
0	2268944	100.155254800511	38.829141668792
0	2268955	100.155918333269	38.833497509258
0	2268975	100.156683200141	38.834159812027
0	2268989	100.157381933436	38.830550852996
0	2268997	100.157448067013	38.834822114796
0	2269005	100.157807360021	38.830873715478
0	2269014	100.158212933885	38.835484417565
0	2269021	100.158232786606	38.83119657796
0	2269033	100.158977800757	38.835633899819
0	2269053	100.159742667629	38.836296202588
0	2269066	100.160359919531	38.832605762164
0	2269074	100.160507534501	38.836958505357
0	2269082	100.160785346116	38.832928624646
0	2269090	100.161210772701	38.833251487128
0	2269098	100.161272401373	38.837620808126
0	2269109	100.162037268245	38.83777029038
0	2269129	100.162802135117	38.838432593149
0	2269142	100.163337905626	38.834660671332
0	2269151	100.163567001989	38.839094895918
0	2269158	100.163763332211	38.834983533814
0	2269168	100.164188758796	38.835306396296
0	2269176	100.164331868861	38.839757198687
0	2269192	100.165096735733	38.839906680941
0	2269205	100.165861602605	38.84056898371
0	2269217	100.166315891721	38.8367155805
0	2269227	100.166626469477	38.841231286479
0	2269234	100.166741318306	38.837038442982
0	2269241	100.167166744891	38.837361305464
0	2269249	100.167391336349	38.841893589248
0	2269263	100.168156203221	38.841940507399
0	2269290	100.168921070093	38.842602810168
0	2269295	100.169293877816	38.838667925565
0	2269303	100.169685936965	38.843265112937
0	2269310	100.169719304401	38.838990788047
0	2269317	100.170144730986	38.839313650529
0	2269325	100.170450803837	38.843927415706
0	2269339	100.171215670709	38.84407689796
0	2269360	100.171980537581	38.844739200729
0	2269365	100.172271863911	38.840722834733
0	2269373	100.172697290496	38.841045697215
0	2269380	100.172745404453	38.845401503498
0	2269387	100.173122717081	38.841368559697
0	2269395	100.173510271325	38.846063806267
0	2269409	100.174275138197	38.846213288521
0	2269429	100.175040005069	38.84687559129
0	2269437	100.175804871941	38.847537894059
0	2269445	100.176569738813	38.848200196828
0	2269451	100.177334605685	38.848349679082
0	2269459	100.178099472557	38.849011981851
0	2269467	100.178864339429	38.84967428462
0	2269476	100.179629206301	38.850336587389
0	2269481	100.180394073173	38.850486069643
0	2269488	100.181158940045	38.851148372412
0	2269497	100.181923806917	38.851810675181
0	2269504	100.182688673789	38.85247297795
0	2269509	100.183453540661	38.852519896101
0	2269516	100.184218407533	38.85318219887
0	2269523	100.184983274405	38.853844501639
0	2269530	100.185748141277	38.854506804408
0	2269535	100.186513008149	38.854656286662
0	2269542	100.187277875021	38.855318589431
0	2269549	100.188042741893	38.8559808922
0	2269556	100.188807608765	38.856643194969

