version 2
run Net10_r-0-20180130-20:53:10-6616
attr configname Net10_r
attr datetime 20180130-20:53:10
attr experiment Net10_r
attr inifile omnetpp.ini
attr iterationvars ""
attr iterationvarsf ""
attr measurement ""
attr network mogp.networks.Net10_r
attr processid 6616
attr repetition 0
attr replication #0
attr resultdir results
attr runnumber 0
attr seedset 0
param **.eventStorage.packetLength "1024 byte"
param **.node[*].operator[*].packetLength "1024 byte"

vector 0 Net10_r.eventStorage "End-to-End Delay" ETV
0	52	5	0
0	60	5.000740740741	0
0	68	5.001481481482	0
0	76	5.002222222223	0
0	84	5.002962962964	0
0	92	5.003703703705	0
0	16721	6.915844451382	0.010511117246001
0	16734	6.916444188417	0.010444187614
0	16747	6.917110855084	0.010444187614
0	16762	6.917777521751	0.010444187614
0	16775	6.918444188418	0.010444187614
0	16935	6.936099587231	0.031432919762
0	35605	8.68500606803	0.010511117245999
0	35617	8.685494693954	0.010444187614
0	35629	8.68605024951	0.010444187614
0	35642	8.686605805066	0.010444187614
0	35656	8.687161360622	0.010444187614
0	35843	8.70537231499	0.031432919761999
0	56320	10.378260036748	0.010511117245999
0	56329	10.378669297592	0.010444187614
0	56341	10.379145488068	0.010444187614
0	56353	10.379621678544	0.010444187614
0	56367	10.38009786902	0.010444187614
0	56617	10.398705648788	0.031432919761999
0	78790	12.022454479947	0.010511117245999
0	78803	12.022804216982	0.010444187613999
0	78816	12.023248404596	0.010471708561001
0	78829	12.02369259221	0.010499229508001
0	78841	12.024136779824	0.010526750455
0	79136	12.042959615796	0.031432919762
0	97463	13.612429971325	0.010511117246001
0	97476	13.612755198556	0.010444187614
0	97488	13.61319938617	0.010496218364999
0	97503	13.613643573784	0.010548249116001
0	97521	13.614087761398	0.010600279867001
0	97738	13.632959616978	0.031432919761999
0	123291	15.183636254276	0.010511117245999
0	123304	15.183920201837	0.010444187613999
0	123325	15.184364389451	0.010537498035001
0	123341	15.184808577065	0.010630808456002
0	123355	15.185252764679	0.010724118877
0	123682	15.204207179599	0.031432919761999
0	145833	16.72774151676	0.010511117245997
0	145846	16.728007920461	0.010444187613999
0	145858	16.728452108075	0.010555041895
0	145872	16.728896295689	0.010665896176
0	145887	16.729340483303	0.010776750456998
0	146121	16.748440840224	0.031543774043001
0	174300	18.255483217742	0.010511117246001
0	174314	18.255719318413	0.010444187613999
0	174345	18.256607693641	0.011029532539002
0	174358	18.257051881255	0.011170689849997
0	174379	18.257496068869	0.011311847161
0	174741	18.276101989955	0.031432919762
0	202372	19.768434468105	0.010511117246001
0	202389	19.768657393545	0.010444187613999
0	202405	19.769101581159	0.010598520155998
0	202421	19.769545768773	0.010752852698001
0	202434	19.769989956387	0.010907185240001
0	202850	19.789066415549	0.031432919761997
0	235701	21.270384930506	0.010444187614002
0	235710	21.270529230452	0.010855154226999
0	235725	21.27082911812	0.010621708560997
0	235744	21.271273305734	0.010799229507999
0	235763	21.271717493348	0.010976750455001
0	236223	21.290962977409	0.031555567850997
0	267406	22.761856988075	0.010511117246001
0	267420	22.762046468699	0.010444187614002
0	267437	22.762490656313	0.010631964971999
0	267455	22.762934843927	0.01081974233
0	267467	22.763379031541	0.011007519688
0	267925	22.782522380335	0.031432919762
0	304307	24.246094870885	0.010546044015999
0	304316	24.246231109721	0.010444187613999
0	304334	24.246675297335	0.010650279989999
0	304351	24.247119484949	0.010856372366
0	304375	24.247563672563	0.011062464742
0	304903	24.266778578163	0.031467846531999
0	337091	25.722832093183	0.010444187614002
0	337110	25.723231602136	0.011073581624
0	337120	25.723276280797	0.010658490171
0	337136	25.723720468411	0.010872792727998
0	337156	25.724164656025	0.011087095284999
0	337660	25.74341014002	0.031482004564999
0	379255	27.194926390721	0.010592126966003
0	379264	27.195021665308	0.01047234779
0	379286	27.195465852922	0.010701481641
0	379303	27.195910040536	0.010930615492001
0	379327	27.19635422815	0.011159749343001
0	379952	27.216325698375	0.032206488383
0	422385	28.659643765385	0.010511117246001
0	422398	28.659812690034	0.010471708561997
0	422420	28.660256877648	0.010707562842999
0	422436	28.660701065262	0.010943417124
0	422455	28.661145252876	0.011179271405002
0	422979	28.680357234568	0.031432919762
0	459853	30.122982135889	0.010571488029001
0	459866	30.123102944657	0.010496218366001
0	459889	30.123547132271	0.010744327549002
0	459912	30.123991319885	0.010992436732
0	459934	30.124435507499	0.011240545915001
0	460554	30.143647489191	0.031432919762
0	505487	31.578143050519	0.010511117246001
0	505499	31.578329832311	0.010507422848001
0	505521	31.578774019925	0.010761134271998
0	505541	31.579218207539	0.011014845696
0	505564	31.579662395153	0.011268557120001
0	506177	31.599225596285	0.031784139201999
0	549395	33.036310898688	0.010959676810003
0	549406	33.036344033076	0.011172991377997
0	549425	33.036755086302	0.011223684244001
0	549445	33.037199273916	0.011487691678006
0	549468	33.03764346153	0.011751699112004
0	550104	33.056884573596	0.031893712078002
0	596379	34.48394199544	0.010511117245997
0	596396	34.484237125248	0.010630808458004
0	596418	34.484681312862	0.010899557476002
0	596439	34.485125500476	0.011168306494
0	596460	34.48556968809	0.011437055512005
0	596980	34.504781669782	0.031526230183999
0	643043	35.935030613254	0.010511117245997
0	643056	35.935236931065	0.010546494886
0	643077	35.935681118679	0.010819742328998
0	643093	35.936125306293	0.011092989772003
0	643122	35.936569493907	0.011366237215
0	643864	35.955781475599	0.031432919761997
0	690912	37.379324965882	0.010511117245997
0	690925	37.379539622238	0.010563171976003
0	690959	37.380427997466	0.011288945578002
0	690978	37.38087218508	0.011570531566001
0	690995	37.381316372694	0.011852117554
0	691525	37.400084166772	0.031432919761997
0	747007	38.824338517327	0.010511117246004
0	747019	38.82455704515	0.010570914910005
0	747040	38.825001232764	0.010856372365005
0	747065	38.825445420378	0.011141829819998
0	747084	38.825889607992	0.011427287274998
0	747872	38.845101589684	0.031432919761997
0	796478	40.26633194005	0.010585344924003
0	796503	40.266776127664	0.010878017386005
0	796526	40.267220315278	0.011170689847994
0	796553	40.267664502892	0.011463362309996
0	797442	40.288456447656	0.032861367681996
0	798362	40.309923371988	0.054479807165997
0	854715	41.706190374016	0.010511117245997
0	854748	41.706826377598	0.010998972679999
0	854767	41.707270565212	0.011295012146
0	854787	41.707714752826	0.011591051612001
0	854812	41.70815894044	0.011887091078002
0	855371	41.727370922132	0.031839813509997
0	908900	43.146073676652	0.010511117246004
0	908913	43.146309090662	0.010604687284001
0	908932	43.146753278276	0.010907030925999
0	908955	43.14719746589	0.011209374568004
0	908973	43.147641653504	0.011511718209995
0	909591	43.166853635196	0.031432919761997
0	964479	44.58344456917	0.011824087426
0	964505	44.583888756784	0.012129386151003
0	964527	44.584332944398	0.012434684875998
0	964555	44.584777132012	0.012739983601001
0	968104	44.664882916684	0.093401323828999
0	968875	44.681749785802	0.110407081836
0	1021869	46.020453823251	0.010511117245997
0	1021889	46.0206977479	0.010621708562006
0	1021909	46.021141935514	0.010932562843003
0	1021935	46.021586123128	0.011243417124
0	1021958	46.022030310742	0.011554271404997
0	1022624	46.041242292434	0.031432919761997
0	1085136	47.453233435463	0.010809687025997
0	1085160	47.453677623077	0.011123155686001
0	1085184	47.454121810691	0.011436624345997
0	1085207	47.454565998305	0.011750093006
0	1087175	47.497123645444	0.054830615961002
0	1087968	47.513990514562	0.071828204032997
0	1142600	48.887758895395	0.010511117246004
0	1142631	48.888246237169	0.010870253892001
0	1142659	48.888690424783	0.011186236378002
0	1142682	48.889134612397	0.011502218864003
0	1142709	48.889578800011	0.011818201350003
0	1143634	48.909292247101	0.032172674080002
0	1204173	50.319468300395	0.010511117246004
0	1204196	50.319893913773	0.010813273834003
0	1204224	50.320338101387	0.011134004658004
0	1204250	50.320782289001	0.011454735482005
0	1204276	50.321226476615	0.011775466305998
0	1205206	50.341053522371	0.032219796012001
0	1272742	51.75161814668	0.011062761248006
0	1272903	51.754879272009	0.014202674456001
0	1272926	51.755323459623	0.014525649949
0	1272955	51.755767647237	0.014848625441999
0	1272986	51.756211834851	0.015171600935005
0	1273971	51.775577619882	0.035143446570999
0	1337330	53.183349040177	0.011688962519997
0	1338164	53.199842156087	0.028065119366005
0	1338191	53.200286343701	0.028392347916004
0	1338222	53.200730531315	0.028719576465996
0	1338252	53.201174718929	0.029046805015994
0	1339228	53.220619325965	0.049076207371996
0	1408101	54.611446363319	0.010667512689999
0	1410618	54.665217094673	0.064323301514996
0	1410645	54.665661282287	0.064652546600001
0	1410675	54.666105469901	0.064981791685
0	1410698	54.666549657515	0.065311036769998
0	1411546	54.685761639207	0.085097731107005
0	1475474	56.043626878611	0.011964920278999
0	1478051	56.093495964468	0.061722895025
0	1478082	56.093940152082	0.062055971527997
0	1478107	56.094384339696	0.062389048031001
0	1478134	56.09482852731	0.062722124533998
0	1479133	56.114239748308	0.082688901087003
0	1544848	57.4689537709	0.010803655258002
0	1545286	57.477230008302	0.018970603043002
0	1545314	57.477674195916	0.019305501040002
0	1545340	57.47811838353	0.019640399036994
0	1545370	57.478562571144	0.019975297033994
0	1546377	57.497806229788	0.039765403762999
0	1615671	58.897522505425	0.010511117246004
0	1615712	58.898128897257	0.011009982195993
0	1615740	58.898573084871	0.011346642927997
0	1615766	58.899017272485	0.01168330366
0	1615792	58.899461460099	0.012019964391996
0	1616532	58.918673441791	0.031769580494
0	1697466	60.504176589451	0.190585897204
0	1697497	60.504620777065	0.190925918151
0	1697528	60.505064964679	0.191265939098
0	1697551	60.505509152293	0.191605960045
0	1706303	60.671642968043	0.358156442463
0	1716854	60.870467576737	0.557085217824
0	1763847	61.789078928838	0.048709385102001
0	1765170	61.814085863137	0.073613755298005
0	1765209	61.814530050751	0.073955378808996
0	1765241	61.814974238365	0.074297002319994
0	1765269	61.815418425979	0.074638625831
0	1770666	61.916858240338	0.176591260705
0	1858975	63.535312867387	0.368359342047
0	1859005	63.535757055001	0.368704027173
0	1859031	63.536201242615	0.369048712299
0	1859064	63.536645430229	0.369393397425
0	1860868	63.568278062164	0.401424039312
0	1875627	63.833036795592	0.666282275228
0	1905986	64.387087890256	0.033555489755997
0	1905999	64.387599007502	0.033478371706011
0	1906037	64.38913235924	0.034423488147993
0	1906051	64.389643476486	0.034346370098007
0	1906065	64.390154593732	0.034269252047991
0	1906078	64.390665710978	0.034192133998005
0	1906094	64.391176828224	0.034115015948004
0	1906128	64.392199062716	0.034549015144009
0	1906144	64.392710179962	0.034471897093994
0	1906166	64.393732414454	0.034905896289999
0	1906191	64.394754648946	0.035339895486004
0	1906207	64.395265766192	0.035262777436003
0	1906226	64.395776883438	0.035185659386002
0	1906240	64.396288000684	0.035108541336001
0	1906269	64.397310235176	0.035542540531992
0	1906282	64.397821352422	0.035465422482005
0	1906310	64.398843586914	0.035899421677996
0	1906323	64.39935470416	0.035822303628009
0	1906355	64.400888055898	0.036767420069992
0	1906367	64.401399173144	0.036690302020006
0	1907068	64.459667292121	0.106036852405
0	1907079	64.460111479735	0.10638300080301
0	1907089	64.460555667349	0.106729149201
0	1907099	64.460999854963	0.107075297599
0	1907117	64.461888230191	0.107669555179
0	1907128	64.462332417805	0.108015703577
0	1907138	64.462776605419	0.10836185197499
0	1907148	64.463220793033	0.108708000373
0	1907166	64.464109168261	0.109302257953
0	1907177	64.464553355875	0.109648406351
0	1907187	64.464997543489	0.10999455474901
0	1907197	64.465441731103	0.110340703147
0	1907215	64.466330106331	0.11093496072701
0	1907226	64.466774293945	0.11128110912499
0	1907236	64.467218481559	0.111627257523
0	1907246	64.467662669173	0.11197340592099
0	1907264	64.468551044401	0.112567663501
0	1907279	64.468995232015	0.11291381189901
0	1907289	64.469439419629	0.113259960297
0	1907304	64.469883607243	0.11360610869501
0	1907323	64.470771982471	0.114200366275
0	1907334	64.471216170085	0.11454651467299
0	1907344	64.471660357699	0.11489266307099
0	1907359	64.472104545313	0.115238811469
0	1907378	64.472992920541	0.115833069049
0	1907389	64.473437108155	0.116179217447
0	1907399	64.473881295769	0.11652536584501
0	1907414	64.474325483383	0.116871514243
0	1907433	64.475213858611	0.11746577182301
0	1907444	64.475658046225	0.11781192022099
0	1907454	64.476102233839	0.118158068619
0	1907469	64.476546421453	0.11850421701699
0	1907488	64.477434796681	0.119098474597
0	1907499	64.477878984295	0.119444622995
0	1907509	64.478323171909	0.119790771393
0	1907524	64.478767359523	0.12013691979101
0	1907543	64.479655734751	0.120731177371
0	1907554	64.480099922365	0.12107732576901
0	1907560	64.480211836655	0.126777475371
0	1907570	64.480544109979	0.12142347416699
0	1907585	64.480988297593	0.121769622565
0	1907604	64.481876672821	0.122363880145
0	1907615	64.482320860435	0.122710028543
0	1907621	64.482432774725	0.128410178145
0	1907631	64.482765048049	0.12305617694101
0	1907646	64.483209235663	0.123402325339
0	1907665	64.484097610891	0.12399658291901
0	1907676	64.484541798505	0.124342731317
0	1907682	64.484653712795	0.13004288091899
0	1907692	64.484985986119	0.12468887971499
0	1907707	64.485430173733	0.12503502811299
0	1907726	64.486318548961	0.12562928569299
0	1907737	64.486762736575	0.125975434091
0	1907743	64.486874650865	0.13167558369301
0	1907753	64.487206924189	0.126321582489
0	1907768	64.487651111803	0.12666773088701
0	1907787	64.488539487031	0.12726198846701
0	1907798	64.488983674645	0.12760813686501
0	1907804	64.489095588935	0.133308286467
0	1907814	64.489427862259	0.12795428526299
0	1907829	64.489872049873	0.128300433661
0	1907848	64.490760425101	0.128894691241
0	1907859	64.491204612715	0.129240839639
0	1907865	64.491316527005	0.134940989241
0	1907875	64.491648800329	0.129586988037
0	1907890	64.492092987943	0.129933136435
0	1907909	64.492981363171	0.130527394015
0	1907920	64.493425550785	0.13087354241301
0	1907926	64.493537465075	0.13657369201499
0	1907935	64.493869738399	0.13121969081099
0	1907949	64.494313926013	0.13156583920899
0	1907966	64.495202301241	0.13216009678899
0	1907976	64.495646488855	0.132506245187
0	1907982	64.495758403145	0.13820639478901
0	1907991	64.496090676469	0.132852393585
0	1908005	64.496534864083	0.13319854198301
0	1908022	64.497423239311	0.13379279956301
0	1908032	64.497867426925	0.13413894796101
0	1908038	64.497979341215	0.139839097563
0	1908047	64.498311614539	0.134485096359
0	1908061	64.498755802153	0.134831244757
0	1908078	64.499644177381	0.135425502337
0	1908088	64.500088364995	0.13577165073499
0	1908094	64.500200279285	0.141471800337
0	1908103	64.500532552609	0.136117799133
0	1908117	64.500976740223	0.136463947531
0	1908134	64.501865115451	0.137058205111
0	1908144	64.502309303065	0.13740435350901
0	1908150	64.502421217355	0.14310450311099
0	1908159	64.502753490679	0.13775050190699
0	1908173	64.503197678293	0.13809665030499
0	1908180	64.504642155425	0.14473720588501
0	1908192	64.506863093495	0.146369908659
0	1908204	64.509084031565	0.148002611433
0	1908216	64.511304969635	0.14963531420699
0	1908228	64.513525907705	0.15126801698101
0	1908234	64.515746845775	0.152900719755
0	1908240	64.517967783845	0.154533422529
0	1908246	64.520188721915	0.156166125303
0	1908252	64.522409659985	0.15779882807701

