version 2
run Net10-0-20190304-14:20:11-12216
attr configname Net10
attr datetime 20190304-14:20:11
attr experiment Net10
attr inifile omnetpp.ini
attr iterationvars ""
attr iterationvarsf ""
attr measurement ""
attr network mogp.networks.Net10
attr processid 12216
attr repetition 0
attr replication #0
attr resultdir results
attr runnumber 0
attr seedset 0
param **.eventStorage.packetLength "1024 byte"
param **.node[*].operator[*].packetLength "1024 byte"

vector 0 Net10.eventStorage "End-to-End Delay" ETV
0	173	5	0
0	174	5	0
0	175	5	0
0	176	5	0
0	177	5	0
0	178	5	0
0	179	5	0
0	180	5	0
0	181	5	0
0	182	5	0
0	183	5	0
0	184	5	0
0	38940	6.025397829898	0.025127560628
0	38993	6.02668521598	0.02641494671
0	39026	6.027328909021	0.027058639751
0	39210	6.03201643836	0.03174616909
0	39241	6.032461555444	0.032191286174
0	39304	6.033950120587	0.033679851317
0	39349	6.035037557523	0.034767288253001
0	40188	6.056011278132	0.055741008862
0	40325	6.059829782791	0.059559513521
0	40389	6.061416683532	0.061146414262001
0	40394	6.061505393868	0.061235124598
0	40425	6.062093568009	0.061823298739
0	77091	7.024333318747	0.023792780207
0	77141	7.025620704829	0.025080166288999
0	77177	7.02626439787	0.025723859329999
0	77409	7.03228670763	0.03174616909
0	77435	7.032734313421	0.032193774881
0	77440	7.032885609436	0.032345070896
0	77492	7.033973046372	0.033432507832
0	78338	7.054287186993	0.053746648453
0	78368	7.055163331035	0.054622792495
0	78395	7.055785202376	0.055244663836
0	78408	7.056039475077	0.055498936537
0	78420	7.056373376517	0.055832837976999
0	115443	8.02404536542	0.023234557609999
0	115477	8.024689058461	0.023878250651
0	115508	8.025332751502	0.024521943691999
0	115784	8.032597656109	0.031786848298999
0	115799	8.032783742171	0.031972934361001
0	115823	8.033228859255	0.032418051444999
0	115850	8.033685093045	0.032874285235
0	116707	8.054287185993	0.053476378182999
0	116724	8.054725258014	0.053914450203999
0	116741	8.055163330035	0.054352522225001
0	116791	8.056182841113	0.055372033303
0	116850	8.057359189395	0.056548381584999
0	153566	9.024428583949	0.023347506868999
0	153613	9.025715970031	0.024634892950999
0	153638	9.026359663072	0.025278585992
0	153895	9.033089670957	0.032008593877
0	153906	9.033272363254	0.032191286173999
0	153912	9.033308572452	0.032227495372
0	153957	9.034068311574	0.032987234494
0	154749	9.054411961834	0.053330884753999
0	154809	9.055726177897	0.054645100817
0	154828	9.056087572911	0.055006495831
0	154833	9.056164249918	0.055083172838
0	154867	9.056675747052	0.055594669971999
0	192490	10.024793080828	0.023441734478
0	192540	10.026391992734	0.025040646384001
0	192562	10.027035685775	0.025684339425
0	192813	10.03309751544	0.031746169090001
0	192824	10.033345371517	0.031994025167
0	192834	10.033542632524	0.032191286174001
0	192883	10.034432808453	0.033081462103
0	193683	10.054994418275	0.053643071925
0	193731	10.05646991463	0.055118568280001
0	193767	10.057346058672	0.055994712322001
0	193790	10.057959774093	0.056608427743001
0	193855	10.059724296516	0.058372950166001
0	226719	11.024935909996	0.023281533442999
0	226749	11.025579603037	0.023925226484
0	226773	11.026223296078	0.024568919524999
0	227033	11.033400545643	0.031746169089999
0	227042	11.033488200685	0.031833824131999
0	227059	11.033845662727	0.032191286173999
0	227094	11.034575637621	0.032921261067999
0	227827	11.054439180843	0.052784804289999
0	227846	11.055137247443	0.053482870889999
0	227870	11.055659681575	0.054005305021999
0	227894	11.056199655037	0.054545278483999
0	227921	11.056937246837	0.055282870284
0	260959	12.024944883605	0.022996389605
0	260990	12.025588576646	0.023640082645999
0	261014	12.026232269687	0.024283775687
0	261281	12.033497174294	0.031548680294
0	261300	12.033897580984	0.031949086984
0	261326	12.034342698068	0.032394204068
0	261332	12.03458461123	0.03263611723
0	262138	12.055146221052	0.053197727052
0	262161	12.055668655184	0.053720161184
0	262188	12.05634895019	0.054400456189999
0	262197	12.056544799226	0.054596305225999
0	262271	12.058113472613	0.056164978612999
0	296706	13.025532996393	0.023290384946
0	296730	13.026176689434	0.023934077986999
0	296751	13.026820382475	0.024577771028
0	296996	13.033988780537	0.031746169089999
0	297005	13.034085287082	0.031842675635
0	297027	13.034466646308	0.032224034860999
0	297057	13.035172724018	0.032930112571
0	297739	13.054811372563	0.052568761116
0	297790	13.056125588626	0.053882977178999
0	297807	13.056563660647	0.054321049199999
0	297829	13.057075157781	0.054832546334
0	297852	13.057663331922	0.055420720474999
0	328915	14.025239001052	0.022996389605
0	328937	14.025882694093	0.023640082645999
0	328959	14.026526387134	0.024283775687
0	329182	14.033791291741	0.031548680294
0	329194	14.033988780537	0.031746169089999
0	329233	14.034878728677	0.03263611723
0	329351	14.038112861872	0.035870250424999
0	329914	14.05523660876	0.052993997312999
0	329936	14.055759042892	0.053516431444999
0	329958	14.056281477024	0.054038865576999
0	329989	14.056912219837	0.054669608389998
0	330028	14.058088568119	0.055845956672
0	365065	15.025469496836	0.023226884388999
0	365099	15.026113189877	0.023870577429999
0	365124	15.026756882918	0.024514270470998
0	365414	15.033910749725	0.031668137277999
0	365425	15.033988781537	0.031746169089999
0	365442	15.034433898621	0.032191286173999
0	365466	15.034998186661	0.032755574213999
0	366281	15.055559796483	0.053317184035999
0	366317	15.056435940525	0.054193328078
0	366349	15.056979203113	0.054736590666
0	366360	15.057312084567	0.05506947212
0	366436	15.058743725536	0.056501113088999
0	400901	16.025558208476	0.023315595029
0	400925	16.026201901517	0.023959288069999
0	400977	16.027489287599	0.025246674152001
0	401217	16.033988782537	0.031746169090002
0	401251	16.034547328939	0.032304715492
0	401288	16.035191070332	0.032948456885002
0	401293	16.035197936101	0.032955322654001
0	402038	16.055556829552	0.053314216105001
0	402063	16.055994901573	0.053752288126002
0	402074	16.056324047696	0.054081434248999
0	402083	16.056432973594	0.054190360147
0	402132	16.057500395978	0.055257782531001
0	435033	17.026009129541	0.023766515094
0	435058	17.026652822582	0.024410208135002
0	435096	17.027296515623	0.025053901176001
0	435354	17.033988783537	0.031746169090002
0	435384	17.034547329939	0.032304715492
0	435414	17.035024514632	0.032781900185
0	435428	17.035197937101	0.032955322654001
0	436242	17.055556830552	0.053314216105001
0	436262	17.055994902573	0.053752288126002
0	436275	17.056357539834	0.054114925387001
0	436286	17.056432974594	0.054190360147
0	436331	17.057533888116	0.055291273668999
0	471445	18.026467828042	0.024225212594999
0	471477	18.027111521083	0.024868905636001
0	471507	18.027755214124	0.025512598677
0	471768	18.033988784537	0.031746169089999
0	471824	18.034924341616	0.032681726168999
0	471841	18.035223498168	0.032980882721002
0	471887	18.036107555667	0.033864940219999
0	472795	18.056669165489	0.054426550041999
0	472942	18.05998540292	0.057742787473
0	472978	18.060899780935	0.058657165488
0	473003	18.06139904373	0.059156428283
0	473051	18.062575392012	0.060332776565001
0	512282	19.034226879375	0.031746169089999
0	512302	19.034671996459	0.032191286174001
0	512331	19.0353156895	0.032834979215
0	512387	19.036603075582	0.034122365297002
0	512422	19.037246768623	0.034766058338001
0	512666	19.043388010242	0.040907299957002
0	512725	19.044475447178	0.041994736892999
0	513632	19.065699688232	0.063218977946999
0	513683	19.067166378115	0.064685667830002
0	513718	19.068042522157	0.065561811872001
0	513782	19.0691787611	0.066698050814999
0	513807	19.069766935241	0.067286224956
0	554866	20.034464974213	0.031746169089999
0	554916	20.035375452294	0.032656647170999
0	555636	20.052376983483	0.049658178360001
0	555673	20.053020676524	0.050301871401
0	555701	20.053664369565	0.050945564441999
0	556059	20.060937783072	0.058218977949
0	556118	20.062016711108	0.059297905985002
0	556907	20.079547330091	0.076828524968001
0	556951	20.080423474133	0.07770466901
0	556975	20.08083828362	0.078119478497001
0	557002	20.081426457761	0.078707652638002
0	557054	20.08257832093	0.079859515807001
0	596689	21.034703069051	0.031746169089999
0	596716	21.035148186135	0.032191286174001
0	596931	21.040225769436	0.037268869475
0	596965	21.040869462477	0.037912562515999
0	596989	21.041513155518	0.038556255557001
0	597314	21.049071139227	0.046114239266
0	597354	21.049754459261	0.0467975593
0	598239	21.070316069083	0.067359169122
0	598369	21.073370336247	0.070413436286
0	598431	21.07468455231	0.071727652349001
0	598451	21.075045947324	0.072089047363001
0	598490	21.075634121465	0.072677221504001
0	639486	22.03526793874	0.032072943940999
0	639497	22.035407126038	0.032212131239
0	640014	22.047657035169	0.04446204037
0	640039	22.04830072821	0.045105733410999
0	640068	22.048944421251	0.045749426452002
0	640389	22.05645365534	0.053258660541001
0	640426	22.057296762794	0.054101767995
0	641196	22.076015583335	0.072820588536
0	641231	22.076891727377	0.073696732578
0	641251	22.077294683588	0.074099688789001
0	641281	22.077882857729	0.074687862929999
0	641302	22.078237805559	0.075042810759999
0	674250	23.026191385204	0.022996389605002
0	674287	23.026835078245	0.023640082646001
0	674311	23.027478771286	0.024283775687
0	674580	23.034743675893	0.031548680294001
0	674589	23.034941164689	0.031746169089999
0	674635	23.03565769036	0.032462694761001
0	674643	23.035831112829	0.032636117230002
0	675505	23.05645365614	0.053258660541001
0	675542	23.057329800182	0.054134804583001
0	675585	23.058270641533	0.055075645934
0	675604	23.058769904328	0.055574908729
0	675661	23.05994625261	0.056751257011001
0	711526	24.027253049433	0.024058053034
0	711553	24.027896742474	0.024701746074999
0	711576	24.028540435515	0.025345439115998
0	711829	24.034941165489	0.031746169089999
0	711849	24.035543006307	0.032348009907999
0	711866	24.036015584903	0.032820588503998
0	711928	24.036892777058	0.033697780659001
0	712785	24.057564768052	0.054369771653
0	712814	24.058002840073	0.054807843673998
0	712840	24.058744131621	0.055549135222002
0	712884	24.059831568557	0.056636572157998
0	712913	24.060419742698	0.057224746298999
0	746419	25.026191386804	0.022996389605002
0	746452	25.026835079845	0.023640082646001
0	746480	25.027478772886	0.024283775687
0	746806	25.034941166289	0.031746169089999
0	746822	25.035191031419	0.031996034220001
0	746840	25.035386283373	0.032191286174001
0	746875	25.035831114429	0.032636117229998
0	747815	25.057009213211	0.053814216012
0	748004	25.061049177379	0.057854180180001
0	748027	25.0614872494	0.058292252200999
0	748035	25.061710776633	0.058515779434
0	748095	25.062887124915	0.059692127716001
0	790415	26.024722269594	0.021300000868003
0	790460	26.025525234921	0.022102966195
0	790499	26.026328200248	0.022905931522001
0	790852	26.035882374051	0.032460105325001
0	791681	26.057487047186	0.054064778460003
0	791742	26.058658764046	0.055236495320003
0	793127	26.095435416639	0.092013147913001
0	793165	26.096611764921	0.093189496195002
0	793668	26.109617309018	0.106195040292
0	793698	26.110139770164	0.106717501438
0	794287	26.126020471971	0.122598203245
0	794864	26.141145557478	0.137723288752
0	823469	27.025025299797	0.021300000868003
0	823510	27.025828265124	0.022102966195
0	823541	27.026631230451	0.022905931522001
0	823914	27.036060109026	0.032334810097002
0	823928	27.036244688396	0.032519389467002
0	823943	27.036648283167	0.032922984238002
0	824315	27.046140589679	0.04241529075
0	824744	27.057624798191	0.053899499262002
0	824766	27.057878290842	0.054152991913
0	824775	27.058121833732	0.054396534803001
0	825463	27.077792786774	0.074067487845003
0	825551	27.079948652037	0.076223353108002
0	858257	28.02532833	0.021300000868003
0	858311	28.026131295327	0.022102966195
0	858371	28.026934260654	0.022905931522001
0	858706	28.03606391667	0.032035587538001
0	858737	28.036560861718	0.032532532586
0	858771	28.037240264952	0.033211935820002
0	859159	28.04672876372	0.042700434588003
0	859609	28.057543758401	0.053515429269002
0	859629	28.057889137799	0.053860808667
0	859675	28.058660075926	0.054631746794001
0	860442	28.078612143702	0.074583814570001
0	860492	28.080239755157	0.076211426025001
0	896747	29.026131293727	0.021846555939
0	896793	29.026934259054	0.022649521266001
0	896839	29.027737224381	0.023452486593001
0	897222	29.036864591037	0.032579853249
0	897272	29.037767839428	0.033483101640002
0	897310	29.038356013569	0.034071275781002
0	897698	29.04783251282	0.043547775032
0	898135	29.05802638128	0.053741643492
0	898152	29.058361080362	0.054076342574003
0	898210	29.059355151444	0.055070413656001
0	899070	29.079637783126	0.075353045338002
0	899158	29.081674591269	0.077389853481002
0	937148	30.025841147312	0.021300000868003
0	937203	30.026644112639	0.022102966195
0	937247	30.027447077966	0.022905931522001
0	937630	30.03697211424	0.032430967796003
0	937720	30.0383695266	0.033828380156002
0	937752	30.038957700741	0.034416554297003
0	938107	30.047846025851	0.043304879407
0	938582	30.058510575744	0.0539694293
0	938599	30.058764068365	0.054222921921003
0	938641	30.059504646826	0.054963500382001
0	939528	30.079637781526	0.075096635082001
0	939570	30.080618599276	0.076077452832003
0	975708	31.026097555968	0.021300000868003
0	975753	31.026900521295	0.022102966195
0	975804	31.027703486622	0.022905931522001
0	976196	31.037225605261	0.032428050161002
0	976225	31.037586497942	0.032788942842
0	976275	31.038401953543	0.033604398443
0	976680	31.048044830577	0.043247275477
0	977099	31.058510574144	0.053713019044
0	977116	31.058764066765	0.053966511665003
0	977150	31.059504645226	0.054707090126001
0	977950	31.079637779926	0.074840224826001
0	977986	31.080589287894	0.075791732794002
0	1016674	32.026594589909	0.021540626153005
0	1016726	32.027397555236	0.022343591480002
0	1016769	32.028200520563	0.023146556806999
0	1017090	32.036855312038	0.031801348282002
0	1017119	32.037443486179	0.032389522423003
0	1017132	32.037610534838	0.032556571082004
0	1017512	32.047544608135	0.042490644379001
0	1017903	32.057895664753	0.052841700997
0	1017927	32.058569393025	0.053515429268998
0	1018004	32.060110534838	0.055056571081998
0	1018714	32.079982570379	0.074928606623004
0	1018754	32.080877976424	0.075824012668001
0	1052099	33.026353964624	0.021300000868003
0	1052154	33.027156929951	0.022102966195
0	1052197	33.027959895278	0.022905931522004
0	1052512	33.036518264345	0.031464300589001
0	1052553	33.037106438486	0.032052474730001
0	1052569	33.037303269787	0.032249306030998
0	1052978	33.047469254506	0.04241529075
0	1053427	33.058583052429	0.053529088673002
0	1053448	33.05910687641	0.054052912654001
0	1053494	33.060100947492	0.055046983735998
0	1054196	33.078997502966	0.073943539209999
0	1054278	33.081018836366	0.075964872610001
0	1087727	34.026353964624	0.021300000868003
0	1087773	34.027156929951	0.022102966195
0	1087822	34.027959895278	0.022905931522004
0	1088152	34.036855312038	0.031801348282002
0	1088181	34.037443486179	0.032389522423003
0	1088187	34.037482570379	0.032428606623
0	1088584	34.047469429951	0.042415466195003
0	1089019	34.058693486179	0.053639522423005
0	1089068	34.059982570379	0.054928606623001
0	1089098	34.06047960592	0.055425642164003
0	1089748	34.078997502966	0.073943539209999
0	1089824	34.081018836366	0.075964872610001
0	1122488	35.026353964624	0.021300000868003
0	1122535	35.027156929951	0.022102966195
0	1122581	35.027959895278	0.022905931522004
0	1122906	35.036855312038	0.031801348282002
0	1122932	35.037303269787	0.032249306030998
0	1122941	35.037443486179	0.032389522423003
0	1123338	35.047469254506	0.04241529075
0	1123780	35.058518836366	0.05346487261
0	1123798	35.058869426561	0.053815462804998
0	1123835	35.059863497643	0.054809533887003
0	1124508	35.079307498582	0.074253534825999
0	1124594	35.081855312038	0.076801348282004
0	1158217	36.026353964624	0.021300000868003
0	1158265	36.027156929951	0.022102966195
0	1158312	36.027959895278	0.022905931522004
0	1158647	36.036855312038	0.031801348282002
0	1158674	36.037443486179	0.032389522423003
0	1158680	36.037482570379	0.032428606623
0	1159073	36.047469254506	0.04241529075
0	1159495	36.058693486179	0.053639522423005
0	1159542	36.059982570379	0.054928606623001
0	1159578	36.06047960592	0.055425642164003
0	1160243	36.078997502966	0.073943539209999
0	1160337	36.081193486179	0.076139522422999
0	1193302	37.026538500165	0.021484536408998
0	1193347	37.027341465492	0.022287501736002
0	1193391	37.028144430819	0.023090467063
0	1193730	37.036855312038	0.031801348282002
0	1193759	37.037443486179	0.032389522423003
0	1193769	37.037610534838	0.032556571082004
0	1194149	37.047469254506	0.04241529075
0	1194544	37.057895664753	0.052841700997
0	1194577	37.058569393025	0.053515429268998
0	1194642	37.060110534838	0.055056571081998
0	1195363	37.079982570379	0.074928606623004
0	1195404	37.08082188668	0.075767922924001
0	1229327	38.026789626613	0.021735662857004
0	1229368	38.02759259194	0.022538628184002
0	1229415	38.028395557267	0.023341593510999
0	1229730	38.036518264345	0.031464300589001
0	1229776	38.037106438486	0.032052474730001
0	1229786	38.037303269787	0.032249306030998
0	1230211	38.047469254506	0.04241529075
0	1230679	38.05881582753	0.053761863774
0	1230698	38.05922960592	0.054175642164005
0	1230736	38.060223677002	0.055169713246002
0	1231458	38.079180098174	0.074126134418002
0	1231528	38.081461596879	0.076407633123004
0	1264807	39.026353964624	0.021300000868003
0	1264855	39.027156929951	0.022102966195
0	1264911	39.027959895278	0.022905931522004
0	1265234	39.036855312038	0.031801348282002
0	1265260	39.037443486179	0.032389522423003
0	1265266	39.037482570379	0.032428606623
0	1265650	39.047469429951	0.042415466195003
0	1266067	39.058518836366	0.05346487261
0	1266123	39.059982570379	0.054928606623001
0	1266154	39.06047960592	0.055425642164003
0	1266813	39.07910687641	0.074052912654004
0	1266894	39.081018836366	0.075964872610001
0	1299390	40.026353964624	0.021300000868003
0	1299431	40.027156929951	0.022102966195
0	1299490	40.027959895278	0.022905931522004
0	1299852	40.037303269787	0.032249306030998
0	1299857	40.037345286768	0.032291323012004
0	1299891	40.037933460909	0.032879497153004
0	1300290	40.047996055095	0.042942091339
0	1300716	40.058518836366	0.05346487261
0	1300767	40.059303841808	0.054249878052005
0	1300809	40.06029791289	0.055243949134002
0	1301517	40.079677697766	0.074623734010004
0	1301580	40.081233154549	0.076179190792999
0	1335412	41.026353964624	0.021300000868003
0	1335460	41.027156929951	0.022102966195
0	1335511	41.027959895278	0.022905931522004
0	1335781	41.03652112445	0.031467160694
0	1335823	41.037109298591	0.032055334835
0	1335833	41.037306129892	0.032252166136004
0	1336205	41.047469254506	0.04241529075
0	1336606	41.058518836366	0.05346487261
0	1336627	41.058869426561	0.053815462804998
0	1336666	41.059863497643	0.054809533887003
0	1337369	41.079180098174	0.074126134418002
0	1337435	41.081023524858	0.075969561101999
0	1370039	42.026779606788	0.021725643031999
0	1370091	42.027582572115	0.022528608359003
0	1370121	42.028385537442	0.023331573686001
0	1370427	42.036855312038	0.031801348282002
0	1370451	42.037443486179	0.032389522423003
0	1370457	42.037482570379	0.032428606623
0	1370843	42.047469429951	0.042415466195003
0	1371264	42.058518836366	0.05346487261
0	1371311	42.059982570379	0.054928606623001
0	1371353	42.06047960592	0.055425642164003
0	1372009	42.078997502966	0.073943539209999
0	1372125	42.082195184648	0.077141220892003
0	1405362	43.026353964624	0.021300000868003
0	1405406	43.027156929951	0.022102966195
0	1405457	43.027959895278	0.022905931522004
0	1405803	43.036855312038	0.031801348282002
0	1405830	43.037303269787	0.032249306030998
0	1405835	43.037443486179	0.032389522423003
0	1406205	43.047469254506	0.04241529075
0	1406607	43.058518836366	0.05346487261
0	1406619	43.059021759897	0.053967796141002
0	1406662	43.059897903939	0.054843940182998
0	1407336	43.078997502966	0.073943539209999
0	1407419	43.081018836366	0.075964872610001
0	1440434	44.027035535706	0.021981571950001
0	1440463	44.027838501033	0.022784537276998
0	1440508	44.02864146636	0.023587502604002
0	1440820	44.036855312038	0.031801348282002
0	1440851	44.037443486179	0.032389522423003
0	1440861	44.037610534838	0.032556571082004
0	1441231	44.047469254506	0.04241529075
0	1441605	44.058313539446	0.053259575689999
0	1441623	44.058660472867	0.053606509110999
0	1441678	44.060110534838	0.055056571081998
0	1442406	44.079982570379	0.074928606623004
0	1442483	44.081855312038	0.076801348282004
0	1475049	45.026353964624	0.021300000868003
0	1475098	45.027156929951	0.022102966195
0	1475145	45.027959895278	0.022905931522004
0	1475471	45.037023412534	0.031969448778
0	1475507	45.037611586675	0.032557622919001
0	1475513	45.037808417976	0.032754454220004
0	1475881	45.047469254506	0.04241529075
0	1476317	45.058518836366	0.05346487261
0	1476346	45.059303841808	0.054249878051998
0	1476384	45.06017998585	0.055126022094001
0	1477127	45.078997502966	0.073943539209999
0	1477210	45.081168938486	0.076114974730004
0	1510219	46.015917812038	0.010863848282
0	1510298	46.01709416032	0.012040196564001
0	1510636	46.026104521348	0.021050557591998
0	1510654	46.026220885423	0.021166921667003
0	1510677	46.026833418959	0.021779455203003
0	1511072	46.036671113014	0.031617149258004
0	1511104	46.037377580986	0.032323617229999
0	1511109	46.037389488461	0.032335524705005
0	1511139	46.038107863908	0.033053900151998
0	1511506	46.048083418959	0.043029455202998
0	1511563	46.049243942304	0.044189978548005
0	1512674	46.081843177847	0.076789214091001
0	1544811	47.015642137897	0.010588174140999
0	1544889	47.016818486179	0.011764522423
0	1545243	47.026104521348	0.021050557591998
0	1545252	47.026220885423	0.021166921667003
0	1545285	47.026833418959	0.021779455203003
0	1545671	47.036922257056	0.031868293300001
0	1545683	47.037101906845	0.032047943089005
0	1545712	47.037640632503	0.032586668747001
0	1545740	47.03835900795	0.033305044194002
0	1546118	47.047968500727	0.042914536971004
0	1546154	47.048968268163	0.043914304407004
0	1547305	47.081567503706	0.07651353995
0	1580030	48.015917812038	0.010863848282
0	1580106	48.01709416032	0.012040196564001
0	1580477	48.026104521348	0.021050557591998
0	1580494	48.026220885423	0.021166921667003
0	1580535	48.026833418959	0.021779455203003
0	1580971	48.036986473119	0.031932509363003
0	1580994	48.037377580986	0.032323617229999
0	1581008	48.037704848566	0.032650884810003
0	1581044	48.038423224013	0.033369260257004
0	1581447	48.048695952495	0.043641988739004
0	1581471	48.049243942304	0.044189978548005
0	1582714	48.081843177847	0.076789214091001
0	1614787	49.015642137897	0.010588174140999
0	1614870	49.016818486179	0.011764522423
0	1615234	49.026104521348	0.021050557591998
0	1615243	49.026220885423	0.021166921667003
0	1615276	49.026833418959	0.021779455203003
0	1615663	49.036922257056	0.031868293300001
0	1615675	49.037101906845	0.032047943089005
0	1615702	49.037640632503	0.032586668747001
0	1615732	49.03835900795	0.033305044194002
0	1616099	49.047968500727	0.042914536971004
0	1616128	49.048968268163	0.043914304407004
0	1617266	49.081567503706	0.07651353995
0	1649633	50.015917812038	0.010863848282
0	1649725	50.01709416032	0.012040196564001
0	1650045	50.026104521348	0.021050557591998
0	1650060	50.026220885423	0.021166921667003
0	1650086	50.026833418959	0.021779455203003
0	1650459	50.036671113014	0.031617149258004
0	1650485	50.037377580986	0.032323617229999
0	1650490	50.037389488461	0.032335524705005
0	1650531	50.038107863908	0.033053900151998
0	1650906	50.048083418959	0.043029455202998
0	1650953	50.049243942304	0.044189978548005
0	1652150	50.081843177847	0.076789214091001
0	1685385	51.015917812038	0.010863848282
0	1685473	51.01709416032	0.012040196564001
0	1685790	51.026104521348	0.021050557591998
0	1685805	51.026220885423	0.021166921667003
0	1685833	51.026833418959	0.021779455203003
0	1686201	51.036671113014	0.031617149258004
0	1686232	51.037377580986	0.032323617229999
0	1686237	51.037389488461	0.032335524705005
0	1686273	51.038107863908	0.033053900151998
0	1686626	51.048083418959	0.043029455202998
0	1686677	51.049243942304	0.044189978547998
0	1687764	51.081843177847	0.076789214091001
0	1719943	52.015917812038	0.010863848282
0	1720023	52.01709416032	0.012040196564001
0	1720351	52.026104521348	0.021050557591998
0	1720369	52.026220885423	0.021166921667003
0	1720394	52.026833418959	0.021779455203003
0	1720772	52.036671113014	0.031617149258004
0	1720809	52.037377580986	0.032323617229999
0	1720814	52.037389488461	0.032335524705005
0	1720849	52.038107863908	0.033053900151998
0	1721222	52.047968500727	0.042914536971004
0	1721268	52.049243942304	0.044189978547998
0	1722343	52.081843177847	0.076789214091001
0	1753974	53.015964718042	0.010588174140999
0	1754052	53.017141066324	0.011764522423
0	1754415	53.026427101493	0.021050557591998
0	1754435	53.026833418459	0.021456874557998
0	1754473	53.027445951995	0.022069408093998
0	1754848	53.036993693159	0.031617149257997
0	1754869	53.03742448699	0.032047943088997
0	1754885	53.037712068606	0.032335524704997
0	1754910	53.038430444053	0.033053900151998
0	1755301	53.048768902319	0.043392358417996
0	1755328	53.049290848308	0.043914304406997
0	1756546	53.082317289399	0.076940745498
0	1787609	54.016287298187	0.010588174141006
0	1787690	54.017463646469	0.011764522423
0	1788025	54.026866045713	0.021166921667003
0	1788045	54.026924136534	0.021225012488003
0	1788072	54.027478579249	0.021779455203003
0	1788446	54.037340166787	0.031641042741001
0	1788464	54.037747067135	0.032047943089005
0	1788479	54.038058542234	0.032359418188001
0	1788513	54.038776917681	0.033077793635002
0	1788856	54.048788115913	0.043088991867002
0	1788887	54.049613428453	0.043914304407004
0	1790025	54.082317288899	0.076618164853002
0	1821358	55.016609878332	0.010588174140999
0	1821427	55.017786226614	0.011764522423
0	1821785	55.027072261783	0.021050557591998
0	1821790	55.027188625858	0.021166921666996
0	1821826	55.027801159394	0.021779455203003
0	1822214	55.03806964728	0.032047943088997
0	1822223	55.038192416846	0.032170712655002
0	1822246	55.038910792293	0.032889088102003
0	1822287	55.03962916774	0.033607463548996
0	1822627	55.049019111403	0.042997407211999
0	1822664	55.049936008598	0.043914304406997
0	1823765	55.082929821935	0.076908117743997
0	1855926	56.017198051973	0.010853767636995
0	1856006	56.018374400255	0.012030115918996
0	1856323	56.027394841928	0.021050557591998
0	1856342	56.027511206003	0.021166921666996
0	1856364	56.028123739539	0.021779455202996
0	1856728	56.037961433594	0.031617149257997
0	1856755	56.038657820921	0.032313536584994
0	1856760	56.038679809041	0.032335524704997
0	1856793	56.039398184488	0.033053900151998
0	1857149	56.049258821307	0.042914536970997
0	1857191	56.050524182239	0.044179897903
0	1858281	56.083123417782	0.076779133445996
0	1889501	57.017255038622	0.010588174140999
0	1889585	57.018431386904	0.011764522423
0	1889915	57.027833786148	0.021166921667003
0	1889924	57.027891876969	0.021225012488003
0	1889949	57.028446319684	0.021779455203003
0	1890315	57.038284013739	0.031617149258004
0	1890336	57.03871480757	0.032047943088997
0	1890350	57.039002389186	0.032335524704997
0	1890378	57.039720764633	0.033053900151998
0	1890732	57.050059222899	0.043392358418004
0	1890760	57.050581168888	0.043914304407004
0	1891901	57.083607609979	0.076940745498
0	1923275	58.017577618767	0.010588174140999
0	1923347	58.018753967049	0.011764522423
0	1923703	58.028040002218	0.021050557591998
0	1923739	58.028736272075	0.021746827449
0	1923776	58.029348805611	0.022359360985
0	1924137	58.03876880449	0.031779359863997
0	1924156	58.039037387715	0.032047943088997
0	1924173	58.039487179937	0.032497735310997
0	1924213	58.040205555384	0.033216110757998
0	1924591	58.050059222399	0.043069777772999
0	1924634	58.050903749033	0.043914304406997
0	1925860	58.083607609479	0.076618164852995
0	1957030	59.017900198912	0.010588174140999
0	1957110	59.019076547194	0.011764522423
0	1957465	59.028362582363	0.021050557592005
0	1957470	59.028478946438	0.021166921667003
0	1957514	59.029091479974	0.021779455203003
0	1957900	59.039044665405	0.031732640634004
0	1957915	59.03935996786	0.032047943089005
0	1957941	59.039763040852	0.032451016081005
0	1957977	59.040481416299	0.033169391528006
0	1958323	59.050226561742	0.042914536971004
0	1958364	59.051226329178	0.043914304407004
0	1959440	59.083825564721	0.07651353995
0	1990603	60.018488372553	0.010853767637002
0	1990687	60.019664720835	0.012030115918996
0	1991035	60.028685162508	0.021050557591998
0	1991054	60.028801526583	0.021166921666996
0	1991082	60.029414060119	0.021779455203003
0	1991511	60.039251754174	0.031617149257997
0	1991543	60.039948141501	0.032313536585001
0	1991548	60.039970129621	0.032335524704997
0	1991588	60.040688505068	0.033053900151998
0	1992009	60.051035681719	0.043401076803001
0	1992051	60.051814502819	0.044179897903
0	1993356	60.084729189591	0.077094584675002
0	2031134	61.018493048327	0.010588174141006
0	2031207	61.019669396609	0.011764522423
0	2031615	61.028955431778	0.021050557592005
0	2031640	61.029414059119	0.021509184933002
0	2031685	61.030026592655	0.022121718469002
0	2032111	61.039587356676	0.031682482490005
0	2032125	61.039952817275	0.032047943089005
0	2032156	61.040305732123	0.032400857937006
0	2032186	61.04102410757	0.033119233383999
0	2032588	61.050819411157	0.042914536971004
0	2032623	61.051819178593	0.043914304407004
0	2033922	61.084549194199	0.076644320013003
0	2071130	62.019494392541	0.011319249084998
0	2071201	62.020670740823	0.012495597367
0	2071549	62.029225701048	0.021050557591998
0	2071563	62.029342065123	0.021166921666996
0	2071602	62.029954598659	0.021779455202996
0	2072043	62.040240397891	0.032065254434997
0	2072088	62.040954161489	0.032779018032997
0	2072093	62.040958773338	0.032783629881997
0	2072123	62.041677148785	0.033502005328998
0	2072535	62.051089680427	0.042914536970997
0	2072625	62.052820522807	0.044645379350996
0	2074027	62.085900544549	0.077725401092998
0	2112104	63.019033586867	0.010588174140999
0	2112183	63.020209935149	0.011764522423
0	2112571	63.029495970318	0.021050557591998
0	2112628	63.030296860925	0.021851448199001
0	2112653	63.030909394461	0.022463981735001
0	2113042	63.040137928372	0.031692515646
0	2113057	63.040493355815	0.032047943089005
0	2113078	63.040856303819	0.032410891093001
0	2113115	63.041574679266	0.033129266540001
0	2113496	63.051425636755	0.042980224029002
0	2113538	63.052359717133	0.043914304407004
0	2114761	63.084958952676	0.07651353995
0	2149635	64.02050393029	0.011764400117002
0	2149693	64.021680278572	0.012940748398989
0	2149986	64.029790087765	0.021050557591991
0	2150003	64.02990645184	0.021166921666989
0	2150039	64.030518985376	0.021779455203003
0	2150442	64.040356679431	0.031617149257997
0	2150479	64.041075054878	0.03233552470499
0	2150523	64.041793430325	0.033053900151998
0	2150531	64.041963699238	0.033224169064994
0	2150934	64.051654067144	0.042914536970997
0	2151029	64.053830060556	0.045090530382993
0	2152323	64.086429296099	0.077689765925996
0	2187501	65.019915878255	0.010882230635005
0	2187578	65.021092226537	0.012058578916992
0	2187966	65.030084205212	0.021050557591991
0	2188007	65.030861699307	0.021828051686995
0	2188043	65.031474232843	0.022440585222995
0	2188437	65.040650796878	0.031617149257997
0	2188458	65.041369172325	0.032335524705005
0	2188465	65.041375647203	0.032341999582997
0	2188510	65.042087547772	0.033053900151998
0	2188907	65.051948184591	0.042914536970997
0	2188959	65.053242008521	0.044208360900996
0	2190373	65.086719753995	0.077686106374998
0	2225547	66.019915939208	0.010588174141006
0	2225632	66.02109228749	0.011764522422993
0	2226017	66.030378322659	0.021050557592005
0	2226046	66.030813102623	0.021485337556001
0	2226089	66.031425636159	0.022097871092001
0	2226493	66.040944914325	0.031617149257997
0	2226509	66.041375708156	0.032047943088997
0	2226525	66.041663289772	0.032335524705005
0	2226563	66.042381665219	0.033053900151998
0	2226962	66.052602106743	0.043274341675996
0	2226983	66.053242069474	0.043914304406997
0	2228183	66.085841305017	0.07651353995
0	2262976	67.021092226137	0.011470343623003
0	2263044	67.022268574419	0.012646691905005
0	2263352	67.030672440106	0.021050557592005
0	2263366	67.030861698907	0.021239816393006
0	2263403	67.031474232443	0.021852349929006
0	2263814	67.041239031772	0.031617149257997
0	2263849	67.041957407219	0.032335524705005
0	2263881	67.042551995085	0.032930112570995
0	2263911	67.043114474619	0.033492592105006
0	2264279	67.052536419485	0.042914536970997
0	2264355	67.054418356403	0.044796473889008
0	2265593	67.087017591946	0.077395709431997
0	2302066	68.021092103631	0.01117610367001
0	2302134	68.022268451913	0.012352451951998
0	2302494	68.030966557553	0.021050557592005
0	2302499	68.031082921628	0.021166921667003
0	2302547	68.031695455164	0.021779455203003
0	2302978	68.042087547172	0.032171547211007
0	2302997	68.042551872579	0.032635872618002
0	2303013	68.042805922619	0.032889922658001
0	2303052	68.043524298066	0.033608298105008
0	2303430	68.053166043395	0.043250043434
0	2303476	68.054418233897	0.044502233936001
0	2304696	68.08701746944	0.077101469479004
0	2339562	69.021092348043	0.010882230635005
0	2339642	69.022268696325	0.012058578917006
0	2339993	69.031260675	0.021050557592005
0	2340030	69.032038169095	0.02182805168701
0	2340073	69.032650702631	0.022440585223009
0	2340463	69.041827266666	0.031617149258011
0	2340491	69.042545642113	0.032335524705005
0	2340498	69.042552116991	0.032341999583011
0	2340543	69.04326401756	0.033053900152012
0	2340936	69.053124654379	0.042914536971011
0	2340997	69.054418478309	0.04420836090101
0	2342303	69.087896223783	0.077686106375012
0	2377974	70.021092408996	0.010588174141006
0	2378057	70.022268757278	0.011764522423007
0	2378454	70.031554792447	0.021050557592005
0	2378459	70.031671156522	0.021166921667003
0	2378509	70.032283690058	0.021779455203003
0	2378961	70.042545641913	0.032041407058003
0	2378968	70.042552177944	0.032047943089012
0	2379010	70.04326401736	0.032759782505011
0	2379042	70.043982392807	0.033478157952004
0	2379435	70.053418771826	0.042914536971011
0	2379477	70.054418539262	0.043914304407011
0	2380830	70.087896223583	0.07739198872801
0	2416204	71.021386526443	0.010588174140992
0	2416288	71.022562874725	0.011764522422993
0	2416670	71.031848909894	0.021050557591991
0	2416726	71.032602105747	0.021803753444999
0	2416764	71.033214639283	0.022416286980999
0	2417160	71.04241550156	0.031617149257997
0	2417187	71.042846295391	0.032047943088997
0	2417201	71.043133877007	0.03233552470499
0	2417257	71.043852252454	0.033053900151998
0	2417685	71.053712889273	0.042914536970997
0	2417747	71.054712656709	0.043914304406997
0	2419224	71.087699758719	0.076901406416994
0	2461586	72.021630428782	0.010588174141006
0	2461676	72.022806777064	0.011764522423007
0	2462185	72.032345945335	0.021303690693998
0	2462209	72.032702536063	0.021660281422001
0	2462248	72.033315069599	0.022272814958001
0	2462760	72.042659403899	0.031617149257997
0	2462787	72.04309019773	0.032047943088997
0	2462803	72.043377779346	0.032335524705005
0	2462870	72.044540333896	0.033498079254997
0	2463391	72.054778484231	0.043736229589996
0	2463407	72.054956559048	0.043914304406997
0	2464958	72.087949215935	0.076906961294
0	2507135	73.025428367275	0.014142210295006
0	2507193	73.026604715557	0.015318558577007
0	2507460	73.032336714572	0.021050557592005
0	2507467	73.032453078647	0.021166921667003
0	2507513	73.033065612183	0.021779455203003
0	2508061	73.044082822823	0.032796665843009
0	2508105	73.04480119827	0.033515041290002
0	2508141	73.045519573717	0.03423341673701
0	2508198	73.046888136223	0.035601979243012
0	2508531	73.054200693951	0.042914536971011
0	2508743	73.058754497541	0.047468340561011
0	2510248	73.092214731079	0.080928574099005
0	2552165	74.022218602723	0.010688543404001
0	2552267	74.023394951005	0.011864891686002
0	2552716	74.032580616911	0.021050557592005
0	2552725	74.032702535863	0.021172476543995
0	2552775	74.033315069399	0.021785010079995
0	2553311	74.043621681585	0.032091622265995
0	2553321	74.043678371671	0.032148312351993
0	2553365	74.044340057032	0.032809997713002
0	2553407	74.045058432479	0.033528373159996
0	2553897	74.054778484031	0.043248424712004
0	2553936	74.055544732989	0.044014673669992
0	2555459	74.088675368175	0.077145308856004
0	2598086	75.033083193189	0.021309231531006
0	2598397	75.039285588049	0.027511626391004
0	2598453	75.040461936331	0.028687974673005
0	2598604	75.043341293229	0.031567331571011
0	2598628	75.04383832877	0.032064367112
0	2599315	75.058104149356	0.046330187698004
0	2599377	75.059280497638	0.047506535980006
0	2599415	75.059924190679	0.048150229021005
0	2599466	75.060934634807	0.049160673149004
0	2599774	75.068273267689	0.056499306031
0	2600272	75.079563918304	0.06778995664601
0	2600879	75.093694549084	0.081920587425998
0	2642679	76.033073962526	0.02130000086801
0	2642827	76.03581660723	0.02404264557201
0	2642890	76.036992955512	0.025218993854011
0	2643209	76.043335195668	0.031561234009999
0	2643276	76.04432926675	0.032555305092004
0	2643790	76.054635168537	0.04286120687901
0	2643861	76.055811516819	0.044037555160997
0	2643894	76.05645520986	0.044681248202011
0	2643939	76.057465653988	0.04569169233001
0	2644256	76.064345906061	0.052571944402999
0	2644821	76.076102513296	0.064328551637999
0	2645278	76.086345906061	0.074571944403004
0	2687265	77.033073962526	0.02130000086801
0	2687442	77.036169303794	0.024395342136003
0	2687496	77.037345652076	0.025571690418005
0	2687739	77.043273267689	0.031499306031009
0	2687804	77.044267338771	0.032493377112999
0	2688321	77.054987865101	0.043213903443004
0	2688382	77.056164213383	0.044390251725005
0	2688433	77.056807906424	0.045033944766004
0	2688486	77.057818350552	0.046044388894003
0	2688813	77.06501803274	0.053244071082005
0	2689344	77.076805827218	0.065031865560002
0	2689949	77.091273267689	0.079499306031011
0	2731208	78.033073962526	0.02130000086801
0	2731373	78.035728433089	0.023954471431011
0	2731435	78.036904781371	0.025130819712999
0	2731732	78.043273267689	0.031499306031009
0	2731790	78.044267338771	0.032493377112999
0	2732298	78.054546994396	0.042773032737998
0	2732364	78.055723342678	0.043949381019999
0	2732406	78.056367035719	0.044593074060998
0	2732457	78.057377479847	0.045603518189012
0	2732766	78.064261362919	0.052487401261004
0	2733340	78.076031084716	0.064257123057999
0	2733884	78.086680433746	0.074906472088003
0	2777066	79.033312057364	0.021300000867996
0	2777479	79.043385218485	0.031373161988995
0	2777504	79.043882254026	0.031870197529997
0	2778090	79.057251687877	0.045239631380994
0	2778149	79.058428036159	0.046415979662996
0	2778878	79.076070249184	0.064058192687995
0	2778938	79.077246597466	0.065234540969996
0	2778969	79.077890290507	0.065878234010995
0	2779015	79.078900734635	0.066888678138994
0	2779310	79.085863270498	0.073851214001991
0	2779804	79.097888211301	0.085876154804993
0	2780232	79.108394719142	0.096382662645993
0	2816465	80.033312058364	0.02130000086801
0	2816599	80.036285734351	0.024273676855003
0	2816658	80.037462082633	0.025450025137005
0	2816911	80.043385219485	0.031373161989009
0	2816938	80.043882255026	0.031870197529997
0	2817430	80.055104295658	0.043092238162004
0	2817486	80.05628064394	0.044268586444005
0	2817529	80.056924336981	0.044912279485004
0	2817567	80.057934781109	0.045922723613003
0	2817901	80.065291842906	0.053279785409998
0	2818414	80.077181053765	0.065168996269009
0	2818814	80.086680434406	0.074668376909997
0	2855308	81.033312059364	0.021300000867996
0	2855436	81.035966529927	0.023954471430997
0	2855496	81.037142878209	0.025130819712999
0	2855709	81.043385220485	0.031373161988995
0	2855755	81.044379291567	0.032367233071
0	2856140	81.054785091234	0.042773032737998
0	2856203	81.055961439516	0.043949381019999
0	2856230	81.056605132557	0.044593074060998
0	2856265	81.057615576685	0.045603518188997
0	2856480	81.064495828758	0.052483770262
0	2856906	81.076870726043	0.064858667547
0	2857238	81.087114118808	0.075102060312005
0	2889231	82.033634639509	0.02130000086801
0	2889393	82.037351484056	0.02501684541501
0	2889446	82.038527832338	0.026193193697011
0	2889647	82.04370780063	0.031373161989009
0	2889663	82.044204836171	0.031870197530012
0	2890124	82.056170045363	0.04383540672201
0	2890182	82.057346393645	0.045011755004012
0	2890207	82.057990086686	0.045655448045011
0	2890241	82.059000530814	0.04666589217301
0	2890470	82.065909354863	0.053574716222002
0	2890886	82.077629814311	0.065295175670002
0	2891184	82.086570679393	0.074236040751998
0	2924093	83.033957219654	0.021300000867996
0	2924237	83.036877283713	0.024220064926993
0	2924288	83.038053631995	0.025396413208995
0	2924516	83.044030380775	0.031373161988995
0	2924540	83.044527416316	0.031870197529997
0	2925009	83.05569584502	0.043038626233994
0	2925062	83.056872193302	0.044214974515995
0	2925086	83.057515886343	0.044858667556994
0	2925133	83.058526330471	0.045869111684993
0	2925389	83.065758775366	0.053101556579989
0	2925809	83.077155613968	0.064498395182
0	2926158	83.087169025761	0.074511806974996
0	2958804	84.034279799799	0.021300000867996
0	2958949	84.037351483056	0.024371684125001
0	2959002	84.038527831338	0.025548032407002
0	2959240	84.044941611938	0.031961813007001
0	2959263	84.045438647479	0.032458848548004
0	2959678	84.056170044363	0.043190245432001
0	2959735	84.057346392645	0.044366593714003
0	2959761	84.057990085686	0.045010286755002
0	2959801	84.059000529814	0.046020730883001
0	2960046	84.065909353863	0.052929554931993
0	2960466	84.077629813311	0.064650014379993
0	2960853	84.088132330747	0.075152531816002
0	2993395	85.034602379944	0.02130000086801
0	2993529	85.037522444003	0.024220064927007
0	2993578	85.038698792285	0.025396413209009
0	2993810	85.044675541065	0.031373161989009
0	2993825	85.045172576606	0.031870197529997
0	2994239	85.05634100531	0.043038626234008
0	2994294	85.057517353592	0.044214974516009
0	2994320	85.058161046633	0.044858667557008
0	2994352	85.059171490761	0.045869111685008
0	2994616	85.066196846387	0.052894467311006
0	2995044	85.077800774258	0.064498395182
0	2995389	85.087538419828	0.074236040751998
0	3027872	86.035099414985	0.021474455763993
0	3027988	86.037579430652	0.023954471430997
0	3028044	86.038755778934	0.025130819712999
0	3028310	86.045264191583	0.031639232361997
0	3028331	86.045761227124	0.032136267902999
0	3028752	86.056397991959	0.042773032737998
0	3028811	86.057574340241	0.043949381019999
0	3028847	86.058218033282	0.044593074060998
0	3028896	86.059466141254	0.045841182032987
0	3029165	86.066877094798	0.053252135576997
0	3029592	86.078215954076	0.064590994854996
0	3029939	86.088459346841	0.074834387619987
0	3062541	87.03542199513	0.021474455763993
0	3062693	87.038641804136	0.024694264769991
0	3062747	87.039818152418	0.025870613051993
0	3062969	87.045566610448	0.031619071081991
0	3062982	87.046063645989	0.032116106622993
0	3063429	87.057460365443	0.043512826076991
0	3063484	87.058636713725	0.044689174358993
0	3063516	87.059280406766	0.045332867399992
0	3063553	87.060290850894	0.046343311527991
0	3063793	87.067171102967	0.053223563600994
0	3064197	87.078920134391	0.064972595024997
0	3064555	87.089133332051	0.075185792684991
0	3098319	88.035247540234	0.021300000867996
0	3098462	88.038177684938	0.024230145571991
0	3098517	88.03935403322	0.025406493853993
0	3098737	88.045320701355	0.031373161988995
0	3098768	88.045817736896	0.031870197529997
0	3099211	88.056996246245	0.043048706878992
0	3099270	88.058172594527	0.044225055160993
0	3099296	88.058816287568	0.044868748201992
0	3099339	88.059826731696	0.045879192329991
0	3099630	88.067129110448	0.053181571081993
0	3100083	88.078456015193	0.064508475826997
0	3100465	88.088883773376	0.074936234009996
0	3134268	89.035247540234	0.021300000867996
0	3134408	89.038030381502	0.024082842135996
0	3134472	89.039206729784	0.025259190417998
0	3134725	89.045879110448	0.031931571081998
0	3134750	89.046376145989	0.032428606623
0	3135145	89.056848942809	0.042901403442997
0	3135198	89.058025291091	0.044077751724998
0	3135220	89.058668984132	0.044721444765997
0	3135267	89.060000414959	0.046052875592991
0	3135497	89.066816610448	0.052869071082
0	3135898	89.078816287568	0.064868748202002
0	3136281	89.089316610448	0.075369071081994

