version 2
run Net10-0-20190310-11:37:16-10436
attr configname Net10
attr datetime 20190310-11:37:16
attr experiment Net10
attr inifile omnetpp.ini
attr iterationvars ""
attr iterationvarsf ""
attr measurement ""
attr network mogp.networks.Net10
attr processid 10436
attr repetition 0
attr replication #0
attr resultdir results
attr runnumber 0
attr seedset 0
param **.eventStorage.packetLength "1024 byte"
param **.node[*].operator[*].packetLength "1024 byte"

vector 0 Net10.eventStorage "End-to-End Delay" ETV
0	161	5	0
0	162	5	0
0	163	5	0
0	164	5	0
0	165	5	0
0	166	5	0
0	167	5	0
0	168	5	0
0	169	5	0
0	170	5	0
0	171	5	0
0	172	5	0
0	29967	6.031926731005	0.031656461735
0	29990	6.032539264541	0.032268995271
0	30003	6.032778515652	0.032508246382
0	30016	6.033151798077	0.032881528807001
0	30025	6.033366689793	0.033096420523
0	30038	6.033764331613	0.033494062343
0	30061	6.034376865149	0.034106595879
0	30067	6.034543038075	0.034272768805001
0	30082	6.034989398685	0.034719129415
0	30107	6.035601932221	0.035331662951
0	30125	6.036214465757	0.035944196487001
0	30675	6.053608779672	0.053338510402
0	59765	7.032364802026	0.031824263486
0	59801	7.032977335562	0.032436797022
0	59806	7.033216586673	0.032676048132999
0	59827	7.033589869098	0.033049330558
0	59836	7.033804760814	0.033264222274
0	59853	7.034202402634	0.033661864093999
0	59866	7.034530802736	0.033990264195999
0	59882	7.03481493617	0.03427439763
0	59909	7.035427469706	0.034886931166
0	59930	7.036040003242	0.035499464702
0	59946	7.036652536778	0.036111998238
0	60428	7.05352399221	0.05298345367
0	89060	8.032475643835	0.031664836025
0	89081	8.033088177371	0.032277369560999
0	89086	8.033151252441	0.032340444631
0	89109	8.033700710907	0.032889903097001
0	89114	8.033739426582	0.032928618772001
0	89131	8.034313244443	0.033502436633
0	89142	8.034465468504	0.033654660693999
0	89157	8.034925777979	0.034114970169
0	89183	8.035538311515	0.034727503705
0	89199	8.036150845051	0.035340037240999
0	89220	8.036763378587	0.035952570777001
0	89692	8.053962063231	0.053151255421
0	116355	9.032569737064	0.031488659983999
0	116378	9.0331822706	0.032101193519999
0	116394	9.033421521711	0.032340444631
0	116410	9.034009695852	0.032928618771999
0	116418	9.034322025148	0.033240948068
0	116433	9.034735737774	0.033654660693999
0	116448	9.03519816919	0.03411709211
0	117040	9.053655985942	0.052574908861999
0	117210	9.057760582785	0.056679505704999
0	117244	9.058514127007	0.057433049926999
0	117316	9.060021215451	0.058940138371
0	117353	9.060774759673	0.059693682593
0	146904	10.033007808085	0.031656461735
0	146933	10.033620341621	0.032268995271
0	146947	10.033859592732	0.032508246382001
0	146964	10.034232875157	0.032881528807001
0	146973	10.034447766873	0.033096420523
0	146986	10.034845408693	0.033494062343001
0	147010	10.035457942229	0.034106595879001
0	147016	10.035624115155	0.034272768805002
0	147036	10.036070475765	0.034719129415
0	147066	10.036683009301	0.035331662951
0	147084	10.037295542837	0.035944196487002
0	147600	10.054689856752	0.053338510402002
0	174818	11.033604743515	0.031983127895
0	174838	11.034217277051	0.032595661430999
0	174856	11.034618864621	0.032997249001001
0	174889	11.03579510362	0.034173488
0	174894	11.035795212903	0.034173597283001
0	174921	11.036671247662	0.035049632042
0	174930	11.036971561185	0.035349945565001
0	174949	11.037283781198	0.035662165578
0	174972	11.037896314734	0.036274699114001
0	174995	11.03850884827	0.036887232650001
0	175017	11.039121381806	0.037499766186
0	175576	11.058112417296	0.056490801676
0	205192	12.033548346625	0.031656461735
0	205210	12.034160880161	0.032268995271
0	205222	12.034400131272	0.032508246381999
0	205240	12.034773413697	0.032881528807
0	205262	12.035385947233	0.033494062342999
0	205274	12.035576479554	0.033684594663999
0	205293	12.035998480769	0.034106595878999
0	205298	12.036164653695	0.034272768805
0	205324	12.036611014305	0.034719129415
0	205352	12.037223547841	0.035331662951
0	205376	12.037836081377	0.035944196487
0	205882	12.055138407513	0.053246522623001
0	233644	13.033650814144	0.031488659983999
0	233667	13.03426334768	0.032101193519999
0	233681	13.034502598791	0.032340444631
0	233705	13.035090772932	0.032928618771999
0	233717	13.035488414752	0.033326260591998
0	233733	13.035816814854	0.033654660693999
0	233746	13.03627924627	0.03411709211
0	233781	13.037504313342	0.035342159181999
0	233796	13.038116846878	0.035954692717999
0	233824	13.038786384667	0.036624230507
0	233842	13.039539928889	0.037377774728999
0	234240	13.054737063022	0.052574908861999
0	264378	14.033650815144	0.031488659984001
0	264407	14.03426334868	0.032101193520001
0	264425	14.034654292937	0.032492137777
0	264434	14.034875882216	0.032713727056001
0	264446	14.035242467078	0.033080311918001
0	264458	14.035488415752	0.033326260592
0	264474	14.036100949288	0.033938794128002
0	264483	14.036254887875	0.034092732715001
0	264500	14.036713482824	0.034551327664001
0	264519	14.03732601636	0.035163861200001
0	264548	14.037938549896	0.035776394736001
0	265037	14.05511715937	0.05295500421
0	294536	15.033650816144	0.031488659984001
0	294565	15.03426334968	0.032101193520001
0	294575	15.034502600791	0.032340444631
0	294592	15.034875883216	0.032713727056001
0	294600	15.035090774932	0.032928618772001
0	294616	15.035488416752	0.033326260592
0	294635	15.036100950288	0.033938794128002
0	294647	15.036267123214	0.034104967054001
0	294659	15.036713483824	0.034551327664001
0	294676	15.03732601736	0.035163861200001
0	294700	15.037938550896	0.035776394736001
0	295195	15.054940672832	0.052778516672001
0	325130	16.033650817144	0.031488659983999
0	325162	16.03426335068	0.032101193519999
0	325171	16.034502601791	0.032340444631
0	325192	16.034875884216	0.032713727055999
0	325200	16.035090775932	0.032928618771997
0	325213	16.035488417752	0.033326260591998
0	325237	16.036100951288	0.033938794127998
0	325259	16.036267124214	0.034104967053999
0	325276	16.036713484824	0.034551327663998
0	325297	16.03732601836	0.035163861199997
0	325322	16.037938551896	0.035776394736001
0	325851	16.054737066022	0.052574908861999
0	354861	17.033650818144	0.031488659983999
0	354887	17.03426335168	0.032101193519999
0	354896	17.034502602791	0.032340444631
0	354909	17.034875885216	0.032713727055999
0	354925	17.035090776932	0.032928618771997
0	354937	17.035488418752	0.033326260591998
0	354948	17.035816818854	0.033654660693998
0	354966	17.036100952288	0.033938794127998
0	354991	17.036713485824	0.034551327663998
0	355010	17.03732601936	0.035163861199997
0	355028	17.037938552896	0.035776394735997
0	355466	17.054737067022	0.052574908861999
0	380011	18.034319872417	0.031835134112001
0	380029	18.034932405953	0.032447667648
0	380055	18.035544939489	0.033060201184
0	380060	18.035596570447	0.033111832141998
0	380082	18.036157473025	0.03367273472
0	380087	18.036184744588	0.033700006282999
0	380105	18.036770006561	0.034285268255999
0	380127	18.03736109287	0.034876354565
0	380135	18.037382540097	0.034897801791999
0	380154	18.037995073633	0.035510335327999
0	380174	18.038607607169	0.036122868863998
0	380656	18.056241731727	0.053756993421999
0	404743	19.034637803995	0.031830485545001
0	404761	19.035147763081	0.032340444631
0	404769	19.035250337531	0.032443019081001
0	404784	19.035735937222	0.032928618772001
0	404789	19.035862871067	0.033055552617
0	404812	19.036461979144	0.033654660694001
0	404817	19.036475404603	0.033668086153
0	404833	19.037087938139	0.034280619689
0	404857	19.037700471675	0.034893153224999
0	404874	19.038313005211	0.035505686760999
0	404897	19.038925538747	0.036118220296999
0	405338	19.055382227312	0.052574908861999
0	429152	20.034734049955	0.03160415136
0	429173	20.035346583491	0.032216684895999
0	429182	20.035585834602	0.032455936007
0	429201	20.035959117027	0.032829218431999
0	429210	20.036174008743	0.033044110148001
0	429224	20.036571650563	0.033441751968002
0	429246	20.037184184099	0.034054285504002
0	429255	20.037350357025	0.034220458429999
0	429267	20.037796717635	0.034666819040002
0	429283	20.038409251171	0.035279352576001
0	429303	20.039021784707	0.035891886112001
0	429696	20.055704807457	0.052574908862002
0	454144	21.034941138724	0.031488659984003
0	454172	21.03555367226	0.032101193520003
0	454182	21.035792923371	0.032340444631
0	454193	21.036166205796	0.032713727056002
0	454202	21.036381097512	0.032928618772001
0	454214	21.036778739332	0.033326260592002
0	454242	21.037557445794	0.034104967054002
0	454265	21.038003806404	0.034551327664001
0	454283	21.03861633994	0.035163861200001
0	454296	21.039228873476	0.035776394736001
0	454320	21.039841407012	0.036388928272
0	454795	21.056241730227	0.052789251487003
0	479009	22.035263718869	0.031488659983999
0	479032	22.035876252405	0.032101193519999
0	479049	22.036115503516	0.032340444631
0	479059	22.036488785941	0.032713727055999
0	479076	22.036703677657	0.032928618771997
0	479085	22.037101319477	0.033326260591998
0	479101	22.037429719579	0.033654660693998
0	479113	22.037713853013	0.033938794127998
0	479130	22.038326386549	0.034551327663998
0	479149	22.038938920085	0.035163861199997
0	479161	22.039551453621	0.035776394735997
0	479635	22.05664517342	0.052870114534997
0	503950	23.035753553395	0.031655914365
0	503971	23.036366086931	0.032268447901
0	503985	23.036886890527	0.032789251497
0	503990	23.036978620467	0.032880981437
0	504010	23.037475064668	0.033377425637998
0	504019	23.037591154003	0.033493514972999
0	504039	23.038203687539	0.034106048508999
0	504060	23.03865141295	0.034553773919999
0	504073	23.038816221075	0.034718582044999
0	504096	23.039428754611	0.035331115580998
0	504112	23.040041288147	0.035943649116998
0	504680	23.058070867071	0.053973228040999
0	529043	24.035908879159	0.031488659983999
0	529063	24.036521412695	0.032101193519999
0	529076	24.036760663806	0.032340444631
0	529086	24.037133946231	0.032713727055999
0	529108	24.037348837947	0.032928618772001
0	529120	24.037746479767	0.033326260591998
0	529131	24.038074879869	0.033654660694001
0	529140	24.038359013303	0.033938794128002
0	529166	24.038971546839	0.034551327664001
0	529183	24.039584080375	0.035163861200001
0	529201	24.040196613911	0.035776394736001
0	529605	24.05729033371	0.052870114535001
0	553550	25.036231459304	0.031488659983999
0	553574	25.03684399284	0.032101193519999
0	553584	25.037083243951	0.032340444631
0	553599	25.037456526376	0.032713727056002
0	553608	25.037671418092	0.032928618772001
0	553621	25.038069059912	0.033326260592002
0	553640	25.038681593448	0.033938794128002
0	553651	25.038847766374	0.034104967054002
0	553667	25.039294126984	0.034551327664001
0	553683	25.03990666052	0.035163861200001
0	553696	25.040519194056	0.035776394736001
0	554102	25.057532050807	0.052789251486999
0	579036	26.036554039449	0.031488659984003
0	579060	26.037166572985	0.032101193520003
0	579068	26.037405824096	0.032340444631
0	579080	26.037779106521	0.032713727056002
0	579089	26.037993998237	0.032928618772001
0	579104	26.038391640057	0.033326260592002
0	579128	26.039004173593	0.033938794128002
0	579138	26.039272030775	0.034206651310001
0	579155	26.039616707129	0.034551327664001
0	579173	26.040229240665	0.035163861200001
0	579192	26.040841774201	0.035776394736001
0	579612	26.057708854397	0.052643474932001
0	604835	27.037237995897	0.031869586229
0	604854	27.037708854299	0.032340444631
0	604867	27.037850529433	0.032482119765003
0	604879	27.03829702844	0.032928618772001
0	604888	27.038463062969	0.033094653301003
0	604911	27.039075596505	0.033707186837002
0	604925	27.039473376722	0.034104967054002
0	604934	27.039688130041	0.034319720373002
0	604952	27.040300663577	0.034932253909002
0	604968	27.040913197113	0.035544787445001
0	604990	27.041525730649	0.036157320981001
0	605425	27.058417009754	0.053048600086001
0	631289	28.03753455317	0.031863113299
0	631311	28.038147086706	0.032475646835003
0	631330	28.038525613007	0.032854173136002
0	631338	28.038759620242	0.033088180371003
0	631364	28.039372153778	0.033700713907002
0	631375	28.039701961289	0.034030521418
0	631387	28.039984687314	0.034313247443002
0	631401	28.04029013543	0.034618695559001
0	631415	28.04059722085	0.034925780979002
0	631442	28.041209754386	0.035538314515001
0	631469	28.041822287922	0.036150848051001
0	632016	28.059218371178	0.053546931307
0	657574	29.037463130058	0.031488659984003
0	657597	29.038075663594	0.032101193520003
0	657602	29.038314914705	0.032340444631
0	657617	29.03868819713	0.032713727056002
0	657628	29.038903088846	0.032928618772001
0	657645	29.039300730666	0.033326260592002
0	657665	29.039913264202	0.033938794128002
0	657676	29.040067202789	0.034092732715003
0	657693	29.040525797738	0.034551327664001
0	657725	29.041138331274	0.035163861200001
0	657747	29.04175086481	0.035776394736001
0	658195	29.058621406583	0.052646936509003
0	684095	30.037757247505	0.031488659983999
0	684124	30.038609032152	0.032340444631
0	684142	30.038982314577	0.032713727055999
0	684147	30.039197206293	0.032928618772001
0	684162	30.039594848113	0.033326260591998
0	684171	30.039923248215	0.033654660694001
0	684183	30.040207381649	0.033938794128002
0	684198	30.040819915185	0.034551327664001
0	684214	30.041432448721	0.035163861200001
0	684232	30.042044982257	0.035776394736001
0	684252	30.042657515793	0.036388928272
0	684640	30.058843496383	0.052574908861999
0	712205	31.038051364952	0.031488659983999
0	712239	31.038663898488	0.032101193519999
0	712269	31.039260792346	0.032698087377998
0	712274	31.039276432024	0.032713727055999
0	712296	31.039848966487	0.033286261518999
0	712304	31.03988896556	0.033326260591998
0	712328	31.040437140628	0.03387443566
0	712336	31.040501499096	0.033938794127998
0	712364	31.041114032632	0.034551327663998
0	712390	31.041726566168	0.035163861199997
0	712412	31.042339099704	0.035776394735997
0	712992	31.05913761383	0.052574908861999
0	746666	32.038375302246	0.031595207574
0	746690	32.038987835782	0.03220774111
0	746696	32.039120539303	0.032340444630997
0	746722	32.039708713444	0.032928618771997
0	746745	32.040212902854	0.033432808181999
0	746758	32.040434755366	0.033654660693998
0	746800	32.041437969926	0.034657875253998
0	747512	32.058638261432	0.051858166759999
0	747562	32.059355003534	0.052574908861999
0	747570	32.059391805654	0.052611710981999
0	747607	32.060145349876	0.053365255204
0	747637	32.060898894098	0.054118799426
0	783081	33.038860597675	0.031863113298996
0	783105	33.039473131211	0.032475646834996
0	783141	33.040085664747	0.033088180370996
0	783146	33.040130354362	0.033132869985998
0	783164	33.040698198283	0.033700713906995
0	783169	33.040718528503	0.033721044126999
0	783189	33.041306702644	0.034309218268
0	783194	33.041310731819	0.034313247442995
0	783223	33.041923265355	0.034925780979002
0	783246	33.042535798891	0.035538314515001
0	783273	33.043148332427	0.036150848051001
0	783851	33.059572393238	0.052574908861999
0	818084	34.039077987379	0.031863113299003
0	818119	34.039831531601	0.032616657521004
0	818146	34.040585075823	0.033370201742997
0	818175	34.041338620045	0.034123745964997
0	818675	34.054730410988	0.047515536908001
0	818701	34.055342944524	0.048128070444001
0	818717	34.05578252665	0.04856765257
0	818742	34.056370700791	0.049155826711001
0	818750	34.056482699072	0.049267824992
0	818782	34.057358843114	0.050143969034004
0	818792	34.057547049073	0.050332174993002
0	819789	34.085730703033	0.078515828953002
0	853210	35.007432263784	0
0	854031	35.029131046198	0.021698782413999
0	854055	35.029574531064	0.022142267280003
0	854073	35.029719220339	0.022286956555
0	854102	35.030339397936	0.022907134152
0	854151	35.031104264808	0.023672001024003
0	854453	35.039730682658	0.032298418873999
0	854822	35.049603744674	0.042171480890005
0	854897	35.05102961142	0.043597347636002
0	855313	35.062291513833	0.054859250048999
0	855368	35.063782620456	0.056350356672006
0	856428	35.0928986667	0.085466402916005
0	888329	36.007649653488	0
0	889185	36.029348435902	0.021698782413999
0	889204	36.029791920768	0.022142267279996
0	889221	36.029936610043	0.022286956555
0	889257	36.03055678764	0.022907134152
0	889299	36.031321654512	0.023672001023996
0	889638	36.040227716599	0.032578063110996
0	890010	36.049821134378	0.042171480889998
0	890490	36.062500091966	0.054850438477999
0	890571	36.06448823413	0.056838580641994
0	891660	36.093747825078	0.086098171589995
0	893228	36.135579650196	0.127929996708
0	924236	37.007867043192	0
0	925001	37.029565825606	0.021698782413999
0	925015	37.030009310472	0.022142267279996
0	925027	37.030153999747	0.022286956555
0	925054	37.030774177344	0.022907134152
0	925095	37.031539044216	0.023672001023996
0	925338	37.039741479141	0.031874435949
0	925672	37.050038524082	0.042171480889998
0	925686	37.050558642069	0.042691598876999
0	926067	37.063185438554	0.055318395362001
0	926102	37.064179509636	0.056312466443998
0	926925	37.092871663255	0.085004620062996
0	960259	38.008137312462	0
0	961074	38.029836094876	0.021698782413999
0	961105	38.030424269017	0.022286956555
0	961829	38.050308793352	0.042171480890005
0	962270	38.06298775094	0.054850438477999
0	962302	38.063752617812	0.055615305350003
0	963260	38.090992302416	0.082854989954001
0	963292	38.091757169288	0.083619856826004
0	963318	38.09252203616	0.084384723698001
0	963331	38.092913868453	0.084776555990999
0	963611	38.100724471085	0.092587158623004
0	965018	38.134942383672	0.12680507121
0	1006914	39.008333388993	0
0	1010934	39.092856812988	0.084523423994995
0	1011508	39.10412277096	0.095789381966995
0	1011553	39.104887637832	0.096554248838999
0	1011598	39.105652504704	0.097319115710995
0	1012003	39.113854939629	0.105521550636
0	1012748	39.128011578864	0.119678189871
0	1019077	39.25952113462	0.251187745627
0	1019107	39.260109308761	0.251775919768
0	1020100	39.280049351996	0.271715963003
0	1020716	39.292672790684	0.284339401691
0	1020791	39.294202524428	0.285869135435
0	1055051	40.008529465524	0
0	1059167	40.093052889519	0.084523423995002
0	1064962	40.210358336976	0.201828871452
0	1065012	40.211123203848	0.202593738324
0	1065050	40.21188807072	0.203358605196
0	1065451	40.220090505645	0.211561040121
0	1065959	40.230571943664	0.22204247814
0	1068650	40.285885010665	0.277355545141
0	1068686	40.286473184806	0.277943719282
0	1069671	40.306468746941	0.297939281417
0	1070353	40.319798956553	0.311269491029
0	1070432	40.321328690297	0.312799224773
0	1102917	41.008725542055	0
0	1106621	41.094305703467	0.085580161412004
0	1108043	41.126708506832	0.117982964777
0	1108084	41.127473373704	0.118747831649
0	1108121	41.128393774104	0.119668232049
0	1108454	41.136440675501	0.127715133446
0	1108752	41.143707112504	0.134981570449
0	1124778	41.539104968668	0.530379426613
0	1124802	41.5396274028	0.530901860745
0	1125721	41.559168629471	0.550443087416
0	1126316	41.571847587059	0.563122045004
0	1126355	41.572612453931	0.563886911876
0	1144469	42.008725543055	0
0	1148174	42.093704184602	0.084978641546996
0	1148278	42.095917161995	0.087191618939997
0	1148315	42.096682028867	0.087956485812001
0	1148392	42.098211762611	0.089486219556001
0	1148720	42.105649330664	0.096923787609001
0	1149013	42.112915767667	0.104190224612
0	1154223	42.238623158785	0.22989761573
0	1154247	42.239211332926	0.230485789871
0	1155048	42.259095857261	0.250370314206
0	1155563	42.271774814849	0.263049271794
0	1155593	42.272539681721	0.263814138666
0	1184482	43.008725544055	0
0	1185373	43.030867811335	0.022142267280003
0	1185405	43.031632678207	0.022907134152
0	1185443	43.032553078607	0.023827534552005
0	1185783	43.040599980004	0.031874435949
0	1186225	43.051940545091	0.043215001036003
0	1187908	43.09324896805	0.084523423995002
0	1191011	43.172643694693	0.163918150638
0	1191039	43.173231868834	0.164506324779
0	1191831	43.193116393169	0.184390849114
0	1192334	43.205795350757	0.197069806702
0	1192401	43.207325084501	0.198599540446
0	1224382	44.008725545055	0
0	1225510	44.030914499798	0.022188954743001
0	1225552	44.03167936667	0.022953821614998
0	1225585	44.032553079607	0.023827534551998
0	1226011	44.040646668467	0.031921123411998
0	1226653	44.055330066127	0.046604521071998
0	1228315	44.093704186602	0.084978641546996
0	1229630	44.12372128069	0.114995735635
0	1229657	44.124309454831	0.115583909776
0	1230335	44.144193979166	0.135468434111
0	1230715	44.156872936754	0.148147391699
0	1230737	44.157637803626	0.148912258571
0	1263109	45.008725546055	0
0	1264041	45.030470462329	0.021744916274002
0	1264073	45.031040248827	0.022314702772
0	1264080	45.03105863647	0.022333090415003
0	1264124	45.031805115699	0.023079569644004
0	1264153	45.032569982571	0.023844436516001
0	1264497	45.040772417496	0.032046871441004
0	1264927	45.050943160805	0.042217614750001
0	1264965	45.051940547091	0.043215001036003
0	1265464	45.063622118393	0.054896572338002
0	1265531	45.065151852137	0.056426306082002
0	1266632	45.093674518484	0.084948972429004
0	1302100	46.008725547055	0
0	1303031	46.030867814335	0.022142267279996
0	1303062	46.031523094909	0.022797547853997
0	1303082	46.031632681207	0.022907134152
0	1303102	46.03211126905	0.023385721994998
0	1303121	46.032553081607	0.023827534551998
0	1303439	46.040599983004	0.031874435949
0	1303882	46.051768112599	0.043042565543999
0	1303894	46.051995793385	0.043270246329996
0	1304378	46.064674750973	0.055949203917997
0	1304405	46.065439617845	0.056714070790001
0	1305489	46.093996428876	0.085270881820996
0	1338666	47.008725548055	0
0	1339669	47.031523095909	0.022797547854005
0	1339710	47.03211127005	0.023385721995005
0	1340586	47.051995794385	0.043270246330003
0	1341138	47.065312648952	0.056587100897005
0	1341170	47.066077515824	0.057351967769002
0	1342235	47.090342558499	0.081617010443999
0	1342272	47.091107425371	0.082381877316003
0	1342317	47.092027825771	0.083302277716001
0	1342426	47.09425405848	0.085528510425
0	1342676	47.100074727168	0.091349179113003
0	1342952	47.106728630635	0.09800308258
0	1378019	48.008725549055	0
0	1378997	48.030867816335	0.022142267279996
0	1379032	48.031632683207	0.022907134152
0	1379040	48.031682621952	0.022957072897
0	1379070	48.032205056084	0.023479507028995
0	1379120	48.033162416951	0.024436867896
0	1379409	48.040599985004	0.031874435949
0	1379865	48.051417147932	0.042691598876999
0	1379922	48.052188757211	0.043463208155998
0	1380459	48.064551036271	0.055825487215998
0	1380501	48.065315903143	0.056590354088002
0	1381613	48.093708666168	0.084983117112998
0	1418489	49.008725550055	0
0	1419952	49.030867817335	0.022142267280003
0	1420014	49.031632684207	0.022907134152
0	1420069	49.032553084607	0.023827534552005
0	1420569	49.040599986004	0.031874435949
0	1420936	49.046863968957	0.038138418902001
0	1420971	49.047452143098	0.038726593043002
0	1421949	49.067336667433	0.058611117378
0	1422532	49.080015625021	0.071290074966001
0	1422566	49.080780491893	0.072054941838005
0	1422762	49.085230968703	0.076505418648004
0	1423136	49.093704191602	0.084978641547004
0	1474807	50.00886068419	0
0	1479857	50.093832213362	0.084971529172002
0	1509391	50.579197062815	0.570336378625
0	1509434	50.579961929687	0.571101245497
0	1509489	50.580726796559	0.571866112369
0	1509983	50.588929231484	0.580068547294
0	1511247	50.609826939807	0.600966255617
0	1517338	50.715790282259	0.706929598069
0	1517380	50.7163784564	0.70751777221
0	1518544	50.736374018535	0.72751333434501
0	1519321	50.749108351244	0.740247667054
0	1519374	50.749873218116	0.741012533926
0	1534620	51.008995818325	0
0	1539559	51.094577265548	0.085581447222999
0	1594733	52.00913095246	0
0	1598180	52.093654376455	0.084523423995002
0	1600024	52.137790245263	1.128794426938
0	1600051	52.138555112135	1.12955929381
0	1600083	52.139323179199	1.130327360874
0	1600406	52.147522413932	1.138526595607
0	1601360	52.171413802989	1.162417984664
0	1604719	52.257215569352	1.248219751027
0	1604748	52.257738003484	1.248742185159
0	1605557	52.277279230155	1.26828341183
0	1606104	52.289958187743	1.280962369418
0	1606172	52.291487921487	1.282492103162
0	1634357	53.00913095246	0
0	1637487	53.093654376455	0.084523423995002
0	1661606	53.708786431767	1.699655479307
0	1661644	53.709551298639	1.700420346179
0	1661676	53.710316165511	1.701185213051
0	1661981	53.718518600436	1.709387647976
0	1662250	53.725785037439	1.716654084979
0	1664589	53.788411994843	1.779281042383
0	1664614	53.789000168984	1.779869216524
0	1665401	53.808884693319	1.799753740859
0	1665893	53.821563650907	1.812432698447
0	1665922	53.822328517779	1.813197565319
0	1673388	54.00913095246	0
0	1676731	54.09394379709	0.084812844630001
0	1685376	54.293143425111	1.284012472651
0	1685420	54.293908291983	1.284777339523
0	1685463	54.294673158855	1.285542206395
0	1685826	54.30287559378	1.29374464132
0	1686023	54.307079363103	1.297948410643
0	1696722	54.57480082136	1.5656698689
0	1696750	54.575388995501	1.566258043041
0	1697596	54.595321176286	1.586190223826
0	1698127	54.607952477424	1.598821524964
0	1698161	54.608717344296	1.599586391836
0	1708774	54.874437750775	0.865306798315
0	1708813	54.875202617647	0.866071665187
0	1708838	54.875967484519	0.866836532059
0	1709195	54.884169919444	0.875038966984
0	1709277	54.886536088159	0.877405135699
0	1714380	55.00913095246	0
0	1717741	55.09383983679	0.084708884329999
0	1728050	55.361777822018	1.352646869558
0	1728080	55.362365996159	1.353235043699
0	1728823	55.382250520494	1.373119568034
0	1729330	55.395175221804	1.386044269344
0	1729366	55.395940088676	1.386809136216
0	1742379	55.720346563991	0.711215611531
0	1742405	55.721111430863	0.711980478403
0	1742448	55.721876297735	0.712745345275
0	1742775	55.73007873266	0.7209477802
0	1742990	55.735507569055	0.726376616595
0	1747516	55.853491403894	0.844360451434
0	1747543	55.854079578035	0.844948625575
0	1748297	55.87396410237	0.86483314991
0	1748792	55.886643059958	0.877512107498
0	1748819	55.88740792683	0.87827697437
0	1753540	56.00913095246	0
0	1756826	56.093654376455	0.084523423995002
0	1764959	56.302865956727	0.293735004267
0	1765006	56.303630823599	0.294499871139
0	1765032	56.304395690471	0.295264738011
0	1765365	56.312598125396	0.303467172936
0	1765503	56.316189361183	0.307058408723
0	1778152	56.640877442225	0.631746489765
0	1778177	56.641399876357	0.632268923897
0	1778975	56.660941103028	0.651810150568
0	1779425	56.673685044772	0.664554092312
0	1779457	56.674449911644	0.665318959184
0	1791487	57.00913095246	0
0	1792389	57.03149941326	0.022368460800003
0	1792439	57.032264280132	0.023133327671999
0	1792474	57.033029147004	0.023898194544003
0	1792773	57.041231581929	0.032100629468999
0	1793179	57.052082825007	0.042951872547
0	1794694	57.093654376455	0.084523423995002
0	1807339	57.428621753492	0.419490801032
0	1807378	57.429209927633	0.420078975173
0	1808286	57.449633634331	0.440502681871
0	1808838	57.461773409556	0.452642457096
0	1808871	57.462538276428	0.453407323968
0	1829082	58.00913095246	0
0	1829879	58.030829734874	0.021698782413999
0	1829902	58.031417909015	0.022286956555
0	1830626	58.05130243335	0.042171480889998
0	1831119	58.064233913361	0.055102960901003
0	1831167	58.065763647105	0.056632694645003
0	1832165	58.093654376455	0.084523423995002
0	1833714	58.137041438716	0.127910486256
0	1833755	58.137806305588	0.128675353128
0	1833790	58.13857117246	0.12944022
0	1834120	58.146773607385	0.137642654925
0	1834273	58.150977376708	0.141846424248
0	1863336	59.00913095246	0
0	1864238	59.03127321974	0.022142267280003
0	1864276	59.031895605579	0.022764653118998
0	1864290	59.032038086612	0.022907134152
0	1864309	59.03248377972	0.023352827259998
0	1864325	59.032802953484	0.023672001024003
0	1864679	59.041005388409	0.031874435949
0	1865176	59.052368304055	0.043237351595003
0	1865181	59.052370886404	0.043239933944001
0	1865727	59.065047261643	0.055916309183004
0	1865765	59.065812128515	0.056681176055001
0	1866934	59.093654376455	0.084523423995002
0	1904370	60.00913095246	0
0	1905327	60.031270605579	0.022139653118998
0	1905379	60.032315473843	0.023184521383001
0	1905384	60.032360820348	0.023229867887999
0	1905427	60.03312568722	0.023994734760002
0	1905464	60.033890554092	0.024759601631999
0	1905827	60.042092989017	0.032962036557002
0	1906251	60.051854341855	0.042723389395
0	1906290	60.052595953476	0.043465001016003
0	1906804	60.065082922961	0.055951970500999
0	1906838	60.065847789833	0.056716837373003
0	1907936	60.093654376455	0.084523423995002
0	1941918	61.00913095246	0
0	1942931	61.032270605579	0.023139653119003
0	1942954	61.03285877972	0.023727827260004
0	1943798	61.052743304055	0.043612351595002
0	1944328	61.065422261643	0.056291309183003
0	1944364	61.066187128515	0.057056176054999
0	1945546	61.094527228248	0.085396275788
0	1946647	61.120657782234	0.111526829774
0	1946687	61.121422649106	0.112291696646
0	1946720	61.122187515978	0.113056563518
0	1947089	61.130389950903	0.121258998443
0	1947403	61.137630102052	0.128499149592
0	1979740	62.00913095326	0
0	1980689	62.03127322054	0.022142267280003
0	1980716	62.032038087412	0.022907134152
0	1980723	62.032103939711	0.022972986451002
0	1980747	62.032692113852	0.023561160592003
0	1980761	62.032802954284	0.023672001024003
0	1981100	62.041005389209	0.031874435949
0	1981548	62.05262373207	0.043492778809998
0	1981555	62.052687675987	0.043556722727004
0	1982045	62.065255595775	0.056124642515002
0	1982073	62.066020462647	0.056889509386998
0	1983145	62.093654377255	0.084523423995002
0	2012193	63.00913095406	0
0	2012826	63.030829736474	0.021698782413999
0	2012853	63.031417910615	0.022286956555
0	2013456	63.05130243495	0.042171480889998
0	2013826	63.063981392538	0.054850438477999
0	2013857	63.06474625941	0.055615305350003
0	2014649	63.093654378055	0.084523423995002
0	2018300	63.200551737998	0.191420783938
0	2018329	63.20131660487	0.19218565081
0	2018357	63.202081471742	0.192950517682
0	2018699	63.210283906667	0.201152952607
0	2019585	63.231790948334	0.222659994274
0	2050866	64.00913095506	0
0	2051743	64.03127322234	0.022142267280003
0	2051769	64.032038089212	0.022907134151993
0	2051803	64.032802956084	0.023672001023996
0	2052125	64.041005391009	0.031874435948993
0	2052253	64.04438477541	0.035253820349993
0	2052281	64.044972949551	0.035841994490994
0	2052552	64.051996580455	0.042865625394995
0	2053073	64.064857473886	0.055726518825992
0	2053559	64.077536431474	0.068405476414
0	2053590	64.078301298346	0.069170343286004
0	2054167	64.093654379055	0.084523423994995
0	2090029	65.00913095606	0
0	2090929	65.031139030229	0.022008074168994
0	2090962	65.031708816727	0.022577860666999
0	2090969	65.03172720437	0.022596248309995
0	2091012	65.032473683599	0.023342727538989
0	2091040	65.033238550471	0.024107594410992
0	2091368	65.041440985396	0.032310029335989
0	2091791	65.051611728705	0.042480772644993
0	2091827	65.052436679499	0.043305723438991
0	2092320	65.064290686293	0.055159730232987
0	2092651	65.072732168088	0.06360121202799
0	2093502	65.094965828346	0.085834872286
0	2123692	66.00913095706	0
0	2126178	66.070223439667	0.061092482607009
0	2126208	66.070988306539	0.061857349478998
0	2126241	66.071753173411	0.062622216351002
0	2126256	66.071868077104	0.062737120044005
0	2126280	66.072456251245	0.063325294185006
0	2126298	66.072593508438	0.063462551378009
0	2126605	66.079955608336	0.070824651275998
0	2126805	66.084771911195	0.075640954135011
0	2127113	66.09234077558	0.083209818520004
0	2127209	66.094372756502	0.085241799442002
0	2127642	66.105019733168	0.095888776107998
0	2158491	67.009433987263	0
0	2159432	67.031576254543	0.022142267280003
0	2159448	67.031988201191	0.022554213928004
0	2159468	67.032341121415	0.022907134152007
0	2159479	67.032576375332	0.023142388069004
0	2159514	67.033261521815	0.023827534551998
0	2159853	67.041308423212	0.031874435949007
0	2160320	67.052460899667	0.043026912404002
0	2160325	67.052563658161	0.043129670897997
0	2160857	67.065139857255	0.055705869992011
0	2161159	67.072896538641	0.063462551378009
0	2162027	67.094675786705	0.085241799442002
0	2195963	68.009433988263	0
0	2196617	68.031132770677	0.021698782414006
0	2196652	68.031720944818	0.022286956555007
0	2197219	68.051605469153	0.042171480890005
0	2197596	68.064284426741	0.054850438477999
0	2197835	68.072896539641	0.063462551377995
0	2198410	68.094675787705	0.085241799442002
0	2198763	68.106848323011	0.097414334747995
0	2198790	68.107613189883	0.098179201619999
0	2198831	68.109142923627	0.099708935364006
0	2199044	68.11658049168	0.107146503417
0	2199642	68.138700066883	0.12926607862001
0	2232288	69.009433989263	0
0	2233246	69.031576256543	0.022142267280003
0	2233277	69.032107820415	0.022673831151991
0	2233287	69.032341123415	0.022907134151993
0	2233314	69.032695994556	0.023262005292992
0	2233345	69.033261523815	0.023827534551998
0	2233670	69.041308425212	0.031874435948993
0	2234166	69.052563660161	0.043129670897997
0	2234194	69.052970995304	0.043537006040992
0	2234729	69.065752312173	0.056318322910002
0	2235016	69.072896540641	0.063462551377995
0	2235905	69.094675788705	0.085241799442002
0	2272191	70.009433990263	0
0	2273126	70.031132772677	0.021698782413992
0	2273159	70.031720946818	0.022286956554993
0	2273184	70.031921128527	0.022487138263998
0	2273251	70.033450862271	0.024016872007991
0	2273294	70.034215729143	0.024781738879994
0	2273613	70.041653297196	0.032219306932987
0	2274057	70.051605471153	0.042171480889991
0	2274097	70.052628889143	0.043194898879989
0	2274574	70.064284428741	0.054850438477999
0	2274605	70.065049295613	0.055615305349988
0	2275767	70.094704872084	0.085270881820989
0	2305378	71.009433991263	0
0	2307270	71.060583456135	0.051149464871997
0	2307295	71.061171630276	0.051737639012998
0	2308191	71.081056154611	0.07162216334801
0	2308741	71.093735112199	0.084301120936004
0	2308774	71.094499979071	0.085065987808008
0	2308818	71.095264845943	0.085830854679998
0	2314412	71.221371361931	0.21193737066801
0	2314440	71.222136228803	0.21270223754
0	2314479	71.222901095675	0.213467104412
0	2314522	71.223665962547	0.21423197128401
0	2314845	71.2311035306	0.221669539337
0	2346452	72.009433992263	0
0	2347433	72.031132774677	0.021698782414006
0	2347477	72.031720948818	0.022286956555007
0	2347499	72.031921130527	0.022487138263998
0	2347535	72.032685997399	0.023252005136001
0	2347572	72.033450864271	0.024016872008005
0	2347953	72.041653299196	0.032219306933001
0	2348420	72.051605473153	0.042171480890005
0	2348465	72.052628891143	0.043194898880003
0	2349011	72.064284430741	0.054850438477999
0	2349037	72.065049297613	0.055615305350003
0	2350155	72.093957416258	0.084523423994995
0	2386265	73.009433993263	0
0	2387217	73.031748696035	0.022314702771993
0	2387238	73.032231541117	0.022797547853997
0	2387264	73.032513562907	0.023079569643997
0	2387280	73.032819715258	0.023385721994998
0	2387336	73.034043296651	0.02460930338799
0	2387642	73.041480864704	0.032046871440997
0	2388137	73.052476558807	0.043042565543999
0	2388152	73.052704239593	0.043270246329996
0	2388676	73.065383197181	0.05594920391799
0	2388705	73.066148064053	0.056714070789994
0	2389774	73.094459126235	0.085025132971992
0	2419964	74.009433994263	0
0	2421717	74.05055870932	0.041124715057009
0	2421739	74.051081143452	0.041647149189004
0	2422574	74.070733407923	0.061299413660009
0	2423084	74.083301327711	0.073867333448007
0	2423123	74.084066194583	0.074632200320011
0	2423549	74.094496537412	0.085062543149007
0	2424174	74.109573577047	0.10013958278401
0	2424214	74.110338443919	0.10090444965601
0	2424244	74.111103310791	0.101669316528
0	2424588	74.119305745716	0.10987175145301
0	2424836	74.125347115647	0.11591312138401
0	2457731	75.009433995063	0
0	2458578	75.031132777477	0.021698782414006
0	2458600	75.031690218303	0.022256223240007
0	2458607	75.031720951618	0.022286956555007
0	2458651	75.032455085175	0.02302109011201
0	2458690	75.033219952047	0.023785956984014
0	2459026	75.041422386972	0.03198839190901
0	2459443	75.051605475953	0.042171480890005
0	2459501	75.052762952055	0.043328956992013
0	2459934	75.064284433541	0.054850438478013
0	2459958	75.065049300413	0.055615305350003
0	2461051	75.093957419058	0.084523423995009
0	2494816	76.009433995863	0
0	2495667	76.031132778277	0.021698782414006
0	2495692	76.031690219103	0.022256223240007
0	2495699	76.031720952418	0.022286956555007
0	2495733	76.032455085975	0.02302109011201
0	2495760	76.033219952847	0.023785956984
0	2496009	76.041422387772	0.03198839190901
0	2496308	76.051605476753	0.042171480890005
0	2496538	76.060326961959	0.050892966096001
0	2496646	76.064284434341	0.054850438478013
0	2496668	76.065049301213	0.055615305350003
0	2497427	76.093957419858	0.084523423995009
0	2527536	77.009433996663	0
0	2528496	77.031576263943	0.022142267280003
0	2528522	77.032129205336	0.022695208673014
0	2528539	77.032341130815	0.022907134152007
0	2528551	77.032717379477	0.023283382814
0	2528606	77.033870864559	0.024436867896
0	2528922	77.041308432612	0.031874435949007
0	2529384	77.052648997695	0.04321500103201
0	2529392	77.052712941612	0.043278944949009
0	2529866	77.0652808614	0.055846864737006
0	2529895	77.066045728272	0.05661173160901
0	2531013	77.094552494673	0.085118498010004
0	2564634	78.009433997463	0
0	2565533	78.031576264743	0.022142267280003
0	2565559	78.032129206136	0.022695208673014
0	2565576	78.032341131615	0.022907134152007
0	2565588	78.032717380277	0.023283382814
0	2565611	78.033261532015	0.023827534552012
0	2565946	78.041308433412	0.031874435949007
0	2566409	78.052285890583	0.042851893120002
0	2566428	78.052712942412	0.043278944949009
0	2566948	78.065406633636	0.05597263617301
0	2566978	78.066171500508	0.056737503045014
0	2568115	78.094552495473	0.085118498010004
0	2601539	79.009433998263	0
0	2602191	79.031132780677	0.021698782414006
0	2602219	79.031720954818	0.022286956555007
0	2602640	79.046162952439	0.036728954176013
0	2602665	79.046927819311	0.037493821048002
0	2602689	79.047848219711	0.038414221448008
0	2602796	79.051605479153	0.042171480890005
0	2602933	79.055895121108	0.046461122845002
0	2603149	79.064284436741	0.054850438478013
0	2603175	79.065049303613	0.055615305350003
0	2603526	79.078474896511	0.069040898248005
0	2603947	79.093957422258	0.084523423995009
0	2634771	80.009433999063	0
0	2635689	80.031132781477	0.021698782414006
0	2635714	80.031690222303	0.022256223240007
0	2635721	80.031720955618	0.022286956555007
0	2635763	80.032455089175	0.02302109011201
0	2635803	80.033219956047	0.023785956984
0	2636159	80.041422390972	0.03198839190901
0	2636587	80.051605479953	0.042171480890005
0	2636617	80.05212559794	0.042691598877013
0	2637081	80.064284437541	0.054850438478013
0	2637120	80.065049304413	0.055615305350003
0	2638202	80.095046274804	0.085612275741013
0	2672989	81.009704268333	0
0	2673917	81.03208649209	0.022382223757006
0	2673927	81.032188798879	0.022484530546009
0	2673949	81.032674666231	0.022970397898007
0	2673963	81.032953665751	0.023249397417999
0	2673994	81.033718532623	0.024014264290003
0	2674338	81.041920967548	0.032216699214999
0	2674773	81.052559190566	0.042854922233005
0	2674778	81.052576555214	0.042872286881007
0	2675259	81.065238148154	0.055533879820999
0	2675286	81.066003015026	0.056298746693002
0	2676292	81.094227692328	0.084523423995009
0	2708121	82.00999838578	0
0	2708843	82.031697168194	0.021698782414006
0	2708872	82.032285342335	0.022286956555007
0	2708912	82.033214853194	0.023216467414002
0	2708945	82.033979720066	0.023981334286006
0	2708977	82.034900120466	0.024901734685997
0	2709192	82.042947021863	0.032948636083006
0	2709440	82.05216986667	0.042171480890005
0	2709695	82.062464129586	0.05246574380601
0	2709764	82.064848824258	0.054850438477999
0	2709799	82.066378558002	0.056380172222006
0	2710541	82.095317039095	0.085318653314999
0	2738919	83.010292503227	0
0	2739802	83.033167450464	0.022874947237
0	2739807	83.033199637379	0.022907134152007
0	2739827	83.033755624605	0.023463121378001
0	2739840	83.033964504251	0.023672001024011
0	2739870	83.034729371123	0.024436867896
0	2740142	83.042166939176	0.031874435949007
0	2740551	83.052984102104	0.042691598876999
0	2740583	83.05364014894	0.043347645713013
0	2741024	83.066319106528	0.056026603301007
0	2741070	83.0670839734	0.05679147017301
0	2742072	83.094815927222	0.084523423995009
0	2774261	84.010586620674	0
0	2775118	84.032285403088	0.021698782413992
0	2775142	84.032873577229	0.022286956554993
0	2775166	84.033383791485	0.022797170810989
0	2775221	84.034148658357	0.023562037682993
0	2775263	84.034913525229	0.024326904554997
0	2775578	84.043115960154	0.032529339479993
0	2775954	84.052758101564	0.042171480889991
0	2776001	84.053953955022	0.043367334347991
0	2776413	84.065437059152	0.054850438477999
0	2776464	84.066201926024	0.055615305349988
0	2777431	84.095110044669	0.084523423994995
0	2809407	85.010880738121	0
0	2810337	85.03316757237	0.022286834249002
0	2810353	85.03334142129	0.022460683169001
0	2810367	85.033755746511	0.022875008390002
0	2810386	85.034106288162	0.023225550040991
0	2810422	85.034871155034	0.023990416912994
0	2810766	85.043073589959	0.032192851837991
0	2811212	85.053620672065	0.042739933943992
0	2811223	85.053640270846	0.042759532725
0	2811755	85.066319228434	0.055438490312994
0	2811780	85.067084095306	0.056203357184998
0	2813014	85.095894492184	0.085013754062999
0	2844812	86.010880738121	0
0	2845759	86.032579520535	0.021698782413992
0	2845788	86.033167694676	0.022286956554993
0	2846665	86.053052219011	0.042171480889991
0	2847229	86.065731176599	0.054850438477999
0	2847263	86.066496043471	0.055615305350003
0	2848573	86.096181537038	0.08530079891699
0	2852875	86.191805136561	0.18092439844
0	2852917	86.192570003433	0.181689265312
0	2852948	86.193334870305	0.18245413218399
0	2853274	86.200772438358	0.189891700237
0	2853618	86.208651408897	0.19777067077599
0	2886968	87.010880738121	0
0	2887944	87.033344042958	0.02246330483699
0	2887954	87.033385538937	0.022504800815994
0	2887981	87.033932217099	0.02305147897799
0	2887996	87.034150405809	0.023269667687998
0	2888042	87.034915272681	0.024034534560002
0	2888384	87.043117707606	0.032236969484998
0	2888842	87.053620672065	0.042739933943992
0	2888853	87.053816741434	0.042936003313002
0	2889409	87.066495699022	0.055614960900996
0	2889442	87.067260565894	0.056379827773
0	2890621	87.095959924972	0.08507918685099
0	2927647	88.010880738121	0
0	2928309	88.032579520535	0.021698782413992
0	2928331	88.033167694676	0.022286956554993
0	2928939	88.053052219011	0.042171480889991
0	2929288	88.065731176599	0.054850438477999
0	2929313	88.066496043471	0.055615305349988
0	2929690	88.080080249177	0.069199511055999
0	2929720	88.080845116049	0.069964377928002
0	2929749	88.081609982921	0.070729244799992
0	2929970	88.089812417846	0.078931679725002
0	2930140	88.095477553006	0.084596814884989
0	2930557	88.110554592641	0.099673854519992
0	2964613	89.010880738121	0
0	2965686	89.033868468042	0.022987729920999
0	2965717	89.034390902174	0.023510164052993
0	2966678	89.054747820557	0.043867082435995
0	2967209	89.066672047304	0.055791309182993
0	2967271	89.068201781048	0.057321042927001
0	2968420	89.095744817294	0.084864079173002
0	2969992	89.132565197361	0.12168445924
0	2970022	89.133330064233	0.12244932611199
0	2970056	89.134094931105	0.12321419298399
0	2970401	89.14229736603	0.13141662790899
0	2970648	89.148186402625	0.137305664504
0	3006840	90.010880738121	0
0	3007836	90.032579520535	0.021698782413992
0	3007858	90.033023005401	0.022142267279989
0	3007872	90.033167694676	0.022286956554993
0	3007893	90.033787872273	0.022907134151993
0	3007934	90.034552739145	0.023672001023996
0	3008293	90.04275517407	0.031874435948993
0	3008728	90.053052219011	0.042171480889991
0	3008765	90.053908406817	0.043027668695998
0	3009272	90.065731176599	0.054850438477999
0	3009305	90.066496043471	0.055615305349988
0	3010571	90.096270040942	0.085389302821
0	3044930	91.010880738121	0
0	3045590	91.032579520535	0.021698782413992
0	3045611	91.033167694676	0.022286956554993
0	3046202	91.053052219011	0.042171480889991
0	3046582	91.065731176599	0.054850438477999
0	3046611	91.066496043471	0.055615305349988
0	3047432	91.095404162116	0.084523423994995
0	3049783	91.181086280401	0.17020554228
0	3049809	91.181851147273	0.17097040915199
0	3049832	91.182616014145	0.17173527602399
0	3050086	91.19081844907	0.17993771094899
0	3050807	91.215083491745	0.20420275362399
0	3084502	92.010880738121	0
0	3085455	92.03352039124	0.022639653119001
0	3085481	92.034108565381	0.023227827260001
0	3086337	92.053993089716	0.043112351594999
0	3086882	92.066672047304	0.055791309182993
0	3086917	92.067436914176	0.056556176054997
0	3087414	92.079060444177	0.068179706056
0	3087447	92.079825311049	0.06894457292799
0	3087480	92.080590177921	0.069709439799993
0	3087851	92.088792612846	0.07791187472499
0	3088154	92.095622537563	0.084741799442
0	3088197	92.096519250049	0.085638511927996
0	3125705	93.010880738121	0
0	3126661	93.032579520535	0.021698782413992
0	3126685	93.033023005401	0.022142267279989
0	3126695	93.033167694676	0.022286956554993
0	3126723	93.033787872273	0.022907134151993
0	3126764	93.034552739145	0.023672001023996
0	3127121	93.04275517407	0.031874435948993
0	3127602	93.053572336998	0.042691598876999
0	3127613	93.053688049602	0.042807311480999
0	3128142	93.065731176599	0.054850438477999
0	3128176	93.066496043471	0.055615305349988
0	3129435	93.096270040942	0.085389302821
0	3157819	94.010880738121	0
0	3161338	94.095622537563	0.084741799442
0	3162427	94.122018578619	0.11113784049799
0	3162455	94.122541012751	0.11166027463
0	3163333	94.142082239422	0.13120150130099
0	3163890	94.15476119701	0.143880458889
0	3163927	94.155526063882	0.14464532576099
0	3166753	94.220302400793	0.209421662672
0	3166791	94.221067267665	0.21018652954399
0	3166828	94.221832134537	0.21095139641599
0	3167186	94.230034569462	0.21915383134099
0	3167528	94.238526073537	0.227645335416
0	3199743	95.010880738121	0
0	3200695	95.033610606009	0.022729867887989
0	3200723	95.034375472881	0.023494734759993
0	3200762	95.035140339753	0.024259601631996
0	3201088	95.043342774678	0.032462036556993
0	3201525	95.053572336998	0.042691598876999
0	3203282	95.095404162116	0.084523423994995
0	3203622	95.103860356416	0.09297961829499
0	3203662	95.104448530557	0.093567792435991
0	3204481	95.124333054892	0.11345231677099
0	3205013	95.13701201248	0.126131274359
0	3205047	95.137776879352	0.126896141231
0	3240563	96.010880738121	0
0	3241536	96.033537872273	0.022657134151999
0	3241564	96.034302739145	0.023422001024002
0	3241607	96.035067606017	0.024186867895992
0	3241950	96.043270040942	0.032389302821002
0	3242398	96.054297808927	0.043417070806001
0	3243763	96.087875694309	0.076994956187988
0	3243790	96.08846386845	0.077583130328989
0	3244087	96.095404162116	0.084523423994995
0	3244613	96.108348392785	0.097467654664001
0	3245109	96.121027350373	0.110146612252
0	3245134	96.121792217245	0.110911479124
0	3277355	97.010880739121	0
0	3278028	97.032579521535	0.021698782414006
0	3278055	97.033167695676	0.022286956555007
0	3278637	97.053052220011	0.042171480890005
0	3279013	97.065731177599	0.054850438477999
0	3279037	97.066496044471	0.055615305350003
0	3279889	97.095929434591	0.085048695470007
0	3285817	97.240555716994	0.229674977873
0	3285847	97.241320583866	0.23043984474501
0	3285879	97.242085450738	0.23120471161701
0	3286205	97.250287885663	0.23940714654201
0	3287075	97.271490260658	0.26060952153701
0	3316973	98.010880740121	0
0	3317878	98.033372383042	0.022491642920997
0	3317890	98.033574655123	0.022693915002009
0	3317914	98.034097089255	0.023216349134003
0	3317919	98.034137249914	0.023256509793001
0	3317950	98.034902116786	0.024021376665004
0	3318277	98.043104551711	0.032223811590001
0	3318689	98.053572338998	0.042691598876999
0	3318696	98.053764111854	0.042883371732998
0	3319232	98.067027313343	0.056146573222009
0	3319265	98.067792180215	0.056911440093998
0	3320347	98.095907295392	0.085026555271
0	3355840	99.010880741121	0
0	3356767	99.032579523535	0.021698782413992
0	3356798	99.03310472149	0.022223980368992
0	3356805	99.033167697676	0.022286956554993
0	3356842	99.033869588362	0.022988847240995
0	3356881	99.034634455234	0.023753714112999
0	3357236	99.042836890159	0.031956149037995
0	3357681	99.053052222011	0.042171480890005
0	3357718	99.053984917598	0.043104176477001
0	3358176	99.065731179599	0.054850438477999
0	3358215	99.066496046471	0.055615305350003
0	3359339	99.09578357969	0.084902838568993
0	3395257	100.010880742121	0
0	3395906	100.032579524535	0.021698782413992
0	3395930	100.033167698676	0.022286956554993
0	3396515	100.053052223011	0.042171480889991
0	3396881	100.065731180599	0.054850438477999
0	3396925	100.067260914343	0.056380172221992
0	3397744	100.095404166116	0.084523423994995
0	3398324	100.115786382194	0.104905640073
0	3398358	100.116551249066	0.10567050694499
0	3398390	100.117316115938	0.10643537381699
0	3398604	100.125518550863	0.11463780874199
0	3399191	100.14702559253	0.136144850409
0	3431289	101.010880743121	0
0	3432200	101.033291416378	0.022410673256999
0	3432222	101.033879590519	0.022998847398
0	3433113	101.053764114854	0.042883371733012
0	3433707	101.067134929031	0.056254185910007
0	3433743	101.067899795903	0.05701905278201
0	3434950	101.095227506258	0.084346763137006
0	3434986	101.09599237313	0.08511163000901
0	3435004	101.096228671895	0.085347928773999
0	3435031	101.096757240002	0.085876496880999
0	3435386	101.104959674927	0.09407893180601
0	3435586	101.109775977786	0.098895234665008
0	3470744	102.010880744121	0
0	3471689	102.032579526535	0.021698782414006
0	3471717	102.03310472449	0.022223980369006
0	3471724	102.033167700676	0.022286956555007
0	3471762	102.033869591362	0.022988847240995
0	3471803	102.034634458234	0.023753714112999
0	3472173	102.042836893159	0.031956149037995
0	3472641	102.053052225011	0.042171480890005
0	3472659	102.05366015177	0.042779407649007
0	3473160	102.065731182599	0.054850438477999
0	3473225	102.067260916343	0.056380172222006
0	3474405	102.096060903539	0.085180159418002
0	3510367	103.010880745121	0
0	3511416	103.033372388042	0.022491642920997
0	3511457	103.034137254914	0.023256509793001
0	3511495	103.034902121786	0.024021376665004
0	3511734	103.040095836988	0.029215091867002
0	3511757	103.040684011129	0.029803266008003
0	3511902	103.043104556711	0.032223811590001
0	3512383	103.05366015277	0.042779407648993
0	3512696	103.060568535464	0.049687790343
0	3513302	103.073247493052	0.062366747930994
0	3513345	103.074012359924	0.063131614802998
0	3514491	103.096595188913	0.085714443792
0	3545599	104.010880746121	0
0	3546557	104.033574661123	0.022693915001994
0	3546585	104.034097095255	0.023216349133989
0	3547437	104.053764117854	0.042883371732998
0	3547979	104.066443075442	0.055562329320992
0	3548004	104.067207942314	0.056327196192996
0	3549245	104.095907301392	0.085026555271
0	3552519	104.170999064206	0.160118318085
0	3552556	104.171763931078	0.160883184957
0	3552585	104.17252879795	0.16164805182899
0	3552940	104.180731232875	0.169850486754
0	3553278	104.18922273695	0.178341990829
0	3586858	105.011137154777	0
0	3587858	105.033531468417	0.022394313639992
0	3587872	105.033906582475	0.022769427697995
0	3587908	105.034494756616	0.023357601838995
0	3587933	105.035061202161	0.023924047384
0	3587981	105.035826069033	0.024688914255989
0	3588313	105.043263637086	0.032126482308996
0	3588802	105.054305063049	0.043167908271997
0	3588810	105.054434799851	0.043297645073991
0	3589342	105.067058238539	0.055921083762001
0	3589373	105.067823105411	0.056685950633991
0	3590568	105.095934290348	0.084797135570994
0	3627161	106.011393563433	0
0	3628075	106.033535830713	0.022142267279989
0	3628113	106.034300697585	0.022907134151993
0	3628123	106.034494755016	0.023101191582995
0	3628153	106.035065564457	0.023672001023996
0	3628160	106.035082929157	0.023689365723996
0	3628490	106.043267999382	0.031874435948993
0	3628953	106.054152728113	0.042759164679993
0	3628996	106.055128090006	0.04373452657299
0	3629511	106.067879020062	0.056485456628991
0	3629544	106.068643886934	0.057250323500995
0	3630687	106.096182552965	0.084788989532001
0	3662430	107.011649972089	0
0	3663402	107.033469112392	0.021819140302995
0	3663431	107.034057286533	0.022407314443996
0	3664361	107.053941810868	0.042291838778993
0	3664941	107.066620768456	0.054970796366987
0	3664979	107.067385635328	0.055735663238991
0	3666221	107.096673168547	0.085023196457996
0	3673865	107.276894750179	0.26524477808999
0	3673895	107.277659617051	0.266009644962
0	3673930	107.278424483923	0.266774511834
0	3674274	107.286626918848	0.274976946759
0	3674595	107.294591421739	0.28294144965
0	3705051	108.011906380745	0
0	3705973	108.033605163159	0.021698782413992
0	3705998	108.034048648025	0.022142267279989
0	3706009	108.0341933373	0.022286956554993
0	3706036	108.034813514897	0.022907134151993
0	3706080	108.035578381769	0.023672001023996
0	3706435	108.043780816694	0.031874435948993
0	3706912	108.054077861635	0.042171480889991
0	3706947	108.054765258449	0.042858877703992
0	3707511	108.067473092062	0.055566711316999
0	3707567	108.069002825806	0.057096445060992
0	3708717	108.096809219314	0.084902838568993
0	3745607	109.012162789401	0
0	3746539	109.0341933357	0.022030546298993
0	3746554	109.034305056681	0.022142267279989
0	3746571	109.034781509841	0.022618720439993
0	3746586	109.035069923553	0.022907134151993
0	3746624	109.035834790425	0.023672001023996
0	3746958	109.04403722535	0.031874435948993
0	3747406	109.054721553076	0.04255876367499
0	3747420	109.054854388278	0.042691598876999
0	3747944	109.067344991764	0.055182202363
0	3747975	109.068109858636	0.055947069234989
0	3749159	109.096809217714	0.084646428312993
0	3784424	110.012419198057	0
0	3785078	110.034117980471	0.021698782413992
0	3785102	110.034706154612	0.022286956554993
0	3785701	110.054590678947	0.042171480889991
0	3786058	110.067269636535	0.054850438477999
0	3786099	110.068799370279	0.056380172221992
0	3786867	110.096942622052	0.084523423994995
0	3787970	110.135101713033	0.12268251497599
0	3788000	110.135866579905	0.123447381848
0	3788024	110.136631446777	0.12421224872
0	3788258	110.144833881702	0.132414683645
0	3788938	110.169251257713	0.156832059656
0	3822114	111.012675606713	0
0	3823039	111.034494747016	0.021819140302995
0	3823075	111.035082921157	0.022407314443996
0	3823929	111.054967445492	0.042291838778993
0	3824490	111.06764640308	0.054970796367002
0	3824556	111.069176136824	0.056500530110995
0	3825316	111.085753760905	0.07307815419199
0	3825347	111.086518627777	0.073843021063993
0	3825378	111.087283494649	0.074607887935997
0	3825760	111.095485929574	0.082810322860993
0	3825903	111.098545397062	0.085869790348994
0	3826107	111.102752366577	0.09007675986399
0	3865616	112.012932015369	0
0	3866311	112.034630797783	0.021698782413992
0	3866335	112.035218971924	0.022286956554993
0	3866933	112.055103496259	0.042171480889991
0	3867337	112.067566809321	0.05463479395199
0	3867349	112.067782453847	0.054850438477999
0	3867368	112.068331676193	0.055399660823994
0	3867396	112.069096543065	0.056164527695998
0	3867401	112.069312187591	0.056380172221992
0	3867637	112.07729897799	0.064366962620994
0	3868211	112.097455439364	0.084523423994995
0	3868327	112.101716354001	0.088784338631996
0	3902555	113.013188424025	0
0	3903521	113.035218970324	0.022030546298993
0	3903551	113.035807144465	0.022618720439993
0	3904211	113.050683134601	0.037494710575999
0	3904243	113.051448001473	0.038259577447988
0	3904277	113.052212868345	0.039024444319992
0	3904438	113.0557471877	0.04255876367499
0	3904644	113.06041530327	0.047226879244988
0	3904937	113.067069206737	0.053880782712
0	3905010	113.068370626388	0.055182202363
0	3905077	113.069900360132	0.056711936106993
0	3906213	113.097834852338	0.084646428312993
0	3944730	114.013444832681	0
0	3946047	114.03591848039	0.022473647708992
0	3946092	114.036683347262	0.023238514580996
0	3946192	114.038213081006	0.024768248324989
0	3946661	114.045650649059	0.032205816377996
0	3947387	114.057256700546	0.043811867864989
0	3948052	114.069852328282	0.056407495600993
0	3948083	114.070440502423	0.056995669741994
0	3949030	114.090436064558	0.076991231876988
0	3949334	114.098354110118	0.084909277436992
0	3949506	114.103003984346	0.089559151665
0	3949540	114.103768851218	0.09032401853699
0	3987060	115.013653164414	0
0	3991062	115.099024010499	0.085370846084999
0	3993235	115.14759088792	0.13393772350601
0	3993270	115.148179062061	0.13452589764701
0	3994196	115.168063586396	0.15441042198201
0	3994757	115.180742543984	0.16708937957
0	3994784	115.181507410856	0.167854246442
0	3997377	115.237372624206	0.22371945979201
0	3997420	115.238137491078	0.224484326664
0	3997497	115.239667224822	0.226014060408
0	3997837	115.247104792875	0.233451628461
0	3998403	115.259271498166	0.24561833375201
0	4035547	116.013861496147	0
0	4036434	116.036322014971	0.022460518823991
0	4036461	116.036910189112	0.023048692964991
0	4037041	116.056794713447	0.042933217300003
0	4037422	116.070041998395	0.056180502247997
0	4037441	116.070806865267	0.056945369120001
0	4038162	116.098384920142	0.084523423994995
0	4047295	116.34544579083	0.331584294683
0	4047335	116.346210657702	0.332349161555
0	4047360	116.346975524574	0.33311402842699
0	4047671	116.355177959499	0.341316463352
0	4048620	116.378982801974	0.365121305827
0	4073385	117.013861496947	0
0	4074295	117.036278927842	0.02241743089499
0	4074321	117.036867101983	0.023005605035991
0	4075163	117.056862664118	0.043001167170999
0	4075685	117.069430583906	0.055569086958997
0	4075721	117.070195450778	0.056333953831
0	4076326	117.084161235246	0.070299738298999
0	4076364	117.084926102118	0.071064605171003
0	4076395	117.08569096899	0.071829472042992
0	4076716	117.093893403915	0.080031906968003
0	4076899	117.098702217179	0.084840720231995
0	4076919	117.09932224031	0.085460743363001
0	4112605	118.013861497747	0
0	4113241	118.035560280161	0.021698782413992
0	4113259	118.036148454302	0.022286956554993
0	4113813	118.056032978637	0.042171480889991
0	4114041	118.064187176793	0.050325679045997
0	4114063	118.064952043665	0.051090545918001
0	4114088	118.065716910537	0.05185541278999
0	4114177	118.068711936225	0.054850438477999
0	4114203	118.069476803097	0.055615305350003
0	4114331	118.073919345462	0.060057847715001
0	4114903	118.093128586321	0.079267088573999
0	4115064	118.098725353574	0.084863855826995
0	4146548	119.013861498547	0
0	4147389	119.035560280961	0.021698782413992
0	4147409	119.036003765827	0.022142267280003
0	4147420	119.036148455102	0.022286956554993
0	4147451	119.036768632699	0.022907134151993
0	4147492	119.037533499571	0.023672001023996
0	4147786	119.045735934496	0.031874435948993
0	4148190	119.056032979437	0.042171480889991
0	4148230	119.056684765841	0.042823267293997
0	4148698	119.068711937025	0.054850438477999
0	4148732	119.069476803897	0.055615305350003
0	4149844	119.09905777939	0.085196280842993
0	4183782	120.013861499347	0
0	4184731	120.036539878922	0.022678379574998
0	4184757	120.036951055921	0.023089556573993
0	4184769	120.037128053063	0.023266553715999
0	4184790	120.037715922793	0.023854423445997
0	4184838	120.038480789665	0.024619290318
0	4185217	120.04668322459	0.032821725242997
0	4185695	120.056684766641	0.042823267293997
0	4185711	120.057012577398	0.043151078050997
0	4186315	120.069691534986	0.055830035638991
0	4186353	120.070456401858	0.056594902510994
0	4187717	120.098567586795	0.084706087447998
0	4219970	121.013861500147	0
0	4220928	121.036278931042	0.02241743089499
0	4220954	121.036867105183	0.023005605035991
0	4221802	121.056751629518	0.042890129371003
0	4221830	121.057389983201	0.04352848305399
0	4221869	121.058154850073	0.044293349925994
0	4221909	121.058919716945	0.045058216797997
0	4222254	121.06712215187	0.053260651722994
0	4222401	121.070181619358	0.056320119210994
0	4222431	121.07094648623	0.057084986082998
0	4222499	121.072550988265	0.058689488117992
0	4223592	121.099126229078	0.085264728930994
0	4257352	122.013861500947	0
0	4258259	122.036278931842	0.02241743089499
0	4258264	122.036338523985	0.022477023037993
0	4258289	122.036867105983	0.023005605035991
0	4258308	122.037103390857	0.023241889909997
0	4258349	122.037868257729	0.024006756782001
0	4258682	122.046070692654	0.032209191706997
0	4259113	122.056553099824	0.042691598876999
0	4259128	122.056751630318	0.042890129371003
0	4259616	122.069430587906	0.055569086958997
0	4259646	122.070195454778	0.056333953831
0	4260721	122.098702221179	0.084840720231995
0	4292109	123.013861501747	0
0	4293027	123.035560284161	0.021698782413992
0	4293063	123.036148458302	0.022286956554993
0	4293913	123.056032982637	0.042171480889991
0	4294461	123.068711940225	0.054850438477999
0	4294494	123.069476807097	0.055615305350003
0	4295700	123.098022538153	0.084161036406002
0	4295720	123.098384925742	0.084523423994995
0	4295735	123.098787405025	0.084925903277991
0	4295771	123.099552271897	0.085690770149995
0	4296090	123.107754706822	0.093893205074991
0	4296241	123.111653809473	0.097792307725996
0	4329651	124.013861502547	0
0	4330491	124.035560284961	0.021698782413992
0	4330522	124.036148459102	0.022286956554993
0	4330551	124.036768636699	0.022907134151993
0	4330592	124.037533503571	0.023672001023996
0	4330619	124.038298370443	0.024436867896
0	4330917	124.045735938496	0.031874435948993
0	4331353	124.056032983437	0.042171480889991
0	4331400	124.056684769841	0.042823267293997
0	4331899	124.068711941025	0.054850438477999
0	4331932	124.069476807897	0.055615305350003
0	4333017	124.098384926542	0.084523423994995
0	4364045	125.013861503347	0
0	4364954	125.035560285761	0.021698782413992
0	4364983	125.036148459902	0.022286956554993
0	4365920	125.056032984237	0.042171480889991
0	4366520	125.06959295703	0.055731453682995
0	4366552	125.070357823902	0.056496320554999
0	4367712	125.098764341916	0.084902838568993
0	4370429	125.158786554521	0.144925051174
0	4370475	125.159551421393	0.145689918046
0	4370514	125.160316288265	0.14645478491799
0	4370888	125.16851872319	0.154657219843
0	4371260	125.176550027065	0.16268852371799
0	4409128	126.014083724569	0
0	4410059	126.036278741963	0.022195017394012
0	4410103	126.037043608835	0.022959884266001
0	4410139	126.037808475707	0.023724751138005
0	4410439	126.046010910632	0.031927186063001
0	4410852	126.056775323446	0.042691598877013
0	4412455	126.099304074657	0.085220350088008
0	4413961	126.141915844982	0.127832120413
0	4413994	126.142504019123	0.128420294554
0	4414742	126.162555100158	0.14847137558901
0	4415225	126.175067501046	0.16098377647701
0	4415265	126.17659723479	0.162513510221
0	4442937	127.014377842016	0
0	4443802	127.03607662443	0.021698782413992
0	4443827	127.036664798571	0.022286956554993
0	4444609	127.056660054941	0.042282212924988
0	4445077	127.069228280494	0.054850438477999
0	4445120	127.069993147366	0.055615305349988
0	4446252	127.099291016516	0.084913174499988
0	4447460	127.129833727887	0.115455885871
0	4447498	127.130598594759	0.11622075274299
0	4447525	127.131363461631	0.11698561961499
0	4447816	127.139565896556	0.12518805453999
0	4448033	127.144994732951	0.13061689093499
0	4478585	128.014671959463	0
0	4479435	128.036814226743	0.022142267280003
0	4479460	128.037252911359	0.022580951896003
0	4479475	128.037579093615	0.022907134152007
0	4479491	128.0378410855	0.023169126037004
0	4479515	128.038499494015	0.023827534551998
0	4479796	128.046546395412	0.031874435949021
0	4480201	128.057931372901	0.043259413438022
0	4480209	128.057990697327	0.043318737864013
0	4480627	128.070404567423	0.05573260796001
0	4480657	128.071169434295	0.056497474832014
0	4481642	128.099283921494	0.084611962031005
0	4513481	129.01496607691	0
0	4514107	129.036664859324	0.021698782414006
0	4514135	129.037253033465	0.022286956555007
0	4514690	129.0571375578	0.042171480890005
0	4515035	129.069816515388	0.054850438478013
0	4515068	129.07058138226	0.055615305350017
0	4515669	129.093864705011	0.078898628101001
0	4515689	129.094629571883	0.079663494973005
0	4515711	129.095394438755	0.080428361845009
0	4515815	129.099489500905	0.084523423995023
0	4515922	129.10359687368	0.088630796770019
0	4516372	129.121888914331	0.10692283742102
0	4547593	130.015260194357	0
0	4548449	130.037252788653	0.021992594296023
0	4548461	130.037426759879	0.022166565522014
0	4548481	130.037840962794	0.022580768437024
0	4548496	130.038191626751	0.022931432394017
0	4548559	130.039112027151	0.023851832794008
0	4548889	130.047158928548	0.031898734191003
0	4549332	130.057836524929	0.042576330572018
0	4549351	130.058095747608	0.042835553251024
0	4549847	130.070677274974	0.055417080617019
0	4549875	130.071442141846	0.056181947489023
0	4550957	130.099927572726	0.084667378369005
0	4584878	131.015260195157	0
0	4585967	131.037459440417	0.022199245259998
0	4586003	131.038224307289	0.022964112132001
0	4586043	131.038989174161	0.023728979004005
0	4586198	131.041902252615	0.026642057457991
0	4586243	131.042490426756	0.027230231598992
0	4586447	131.047191609086	0.031931413928987
0	4587034	131.058545319601	0.043285124443997
0	4587226	131.062430469991	0.047170274834002
0	4587867	131.075053908679	0.059793713521998
0	4587943	131.076583642423	0.061323447266005
0	4589020	131.100456434542	0.085196239384999
0	4619075	132.015260196157	0
0	4619987	132.037443568401	0.022183372244001
0	4620010	132.037883103705	0.022622907547998
0	4620029	132.038208435273	0.022948239116005
0	4620041	132.038471277846	0.023211081688999
0	4620093	132.039738169017	0.024477972860012
0	4620388	132.04717573707	0.031915540913019
0	4620834	132.058392987265	0.043132791108007
0	4620859	132.059055014122	0.043794817965022
0	4621335	132.071034759769	0.055774563612005
0	4621375	132.071799626641	0.056539430484008
0	4622385	132.100182899134	0.084922702976996
0	4655210	133.015260197157	0
0	4656103	133.037261439426	0.022001242268999
0	4656114	133.037402464437	0.022142267280003
0	4656140	133.037849613567	0.02258941641
0	4656173	133.038167331309	0.022907134151978
0	4656211	133.038932198181	0.023672001023982
0	4656550	133.047134633106	0.031874435948993
0	4657000	133.057789656802	0.042529459644982
0	4657040	133.058545321601	0.043285124443997
0	4657477	133.07041309549	0.055152898333006
0	4657505	133.071177962362	0.055917765204981
0	4658525	133.09989950003	0.084639302873001
0	4689678	134.015260198157	0
0	4690567	134.037328422702	0.022068224544995
0	4690593	134.037916596843	0.022656398685996
0	4691305	134.054796555609	0.039536357451993
0	4691336	134.055561422481	0.040301224323997
0	4691385	134.056481822881	0.041221624724017
0	4691444	134.057801121178	0.042540923020994
0	4691733	134.064528724278	0.049268526121011
0	4691939	134.069957560673	0.054697362516009
0	4691972	134.070480078766	0.055219880609002
0	4691996	134.071244945638	0.055984747481006
0	4693111	134.099935979887	0.084675781729999
0	4725755	135.015260199157	0
0	4726653	135.037443571401	0.022183372244001
0	4726678	135.037883106705	0.022622907548026
0	4726696	135.038208438273	0.022948239116005
0	4726713	135.038471280846	0.023211081689027
0	4726730	135.038973305145	0.023713105988008
0	4727075	135.04717574007	0.031915540913019
0	4727525	135.057951798034	0.042691598877013
0	4727547	135.058411324081	0.043151124924009
0	4728072	135.071051301055	0.055791101898023
0	4728102	135.071816167927	0.056555968770027
0	4729229	135.099910814578	0.084650615421026
0	4765892	136.015260199157	0
0	4766582	136.036958981571	0.021698782414006
0	4766611	136.037547155712	0.022286956555007
0	4767236	136.057431680047	0.042171480890005
0	4767661	136.070110637635	0.054850438478013
0	4767688	136.070875504507	0.055615305350017
0	4768478	136.096699591269	0.081439392112003
0	4768508	136.097464458141	0.082204258984007
0	4768549	136.098994191885	0.083733992728014
0	4768586	136.099971695173	0.084711496016013
0	4768769	136.106431759938	0.091171560781021
0	4769497	136.131461669485	0.11620147032801
0	4806270	137.015260199157	0
0	4807228	137.037649852276	0.022389653119006
0	4807233	137.037667333309	0.022407134152019
0	4807266	137.038238026417	0.022977827260007
0	4807279	137.038432200181	0.023172001024022
0	4807322	137.039200267245	0.023940068088024
0	4807652	137.047399501978	0.032139302821008
0	4808127	137.058122550752	0.042862351595005
0	4808142	137.058331214161	0.043071015004017
0	4808631	137.07080150834	0.055541309183013
0	4808669	137.071566375212	0.056306176055017
0	4809756	137.099971695173	0.084711496016013
0	4844700	138.015530468427	0
0	4845669	138.037672735707	0.022142267280003
0	4845708	138.038224383469	0.022693915041998
0	4845716	138.038437602579	0.022907134152007
0	4845730	138.038746817601	0.023216349174021
0	4845756	138.039202469451	0.023672001024011
0	4846085	138.047404904376	0.031874435949021
0	4846540	138.058337757059	0.042807288632019
0	4846545	138.058483546497	0.042953078070013
0	4847043	138.071016714647	0.055486246219999
0	4847064	138.071781581519	0.056251113092003
0	4848129	138.100053892422	0.084523423995023
0	4880898	139.015800737697	0
0	4881758	139.037499520111	0.021698782414006
0	4881783	139.038086990969	0.022286253272
0	4881790	139.038087694252	0.022286956555007
0	4881845	139.038851857841	0.023051120144004
0	4881891	139.039616724713	0.023815987016008
0	4882219	139.047819159638	0.032018421941018
0	4882641	139.058051154122	0.042250416424991
0	4882673	139.058620854151	0.04282011645401
0	4883152	139.070651176175	0.054850438478013
0	4883193	139.071416043047	0.055615305350017
0	4884317	139.100754328646	0.084953590948999
0	4918834	140.016071006967	0
0	4919758	140.038453230724	0.022382223757006
0	4919771	140.038555537513	0.022484530545995
0	4919782	140.039041404865	0.022970397898007
0	4919803	140.039320404385	0.023249397417999
0	4919835	140.040085271257	0.024014264290003
0	4920178	140.048287706182	0.032216699215013
0	4920613	140.0589259292	0.042854922233005
0	4920618	140.058943744697	0.042872737729994
0	4921175	140.072223823278	0.056152816310998
0	4921208	140.07298869015	0.056917683183002
0	4922322	140.101413012438	0.085342005471006
0	4955161	141.016341276237	0
0	4956117	141.038548496926	0.022207220688983
0	4956148	141.039136671067	0.022795394829984
0	4957009	141.059132233202	0.042790956965007
0	4957553	141.07170015299	0.05535887675299
0	4957599	141.072465019862	0.056123743624994
0	4958721	141.098636657025	0.082295380787997
0	4958756	141.099401523897	0.083060247660001
0	4958792	141.100321924297	0.083980648059992
0	4958831	141.101032501983	0.084691225745985
0	4959137	141.108368825694	0.092027549456986
0	4959377	141.114410195625	0.098068919387998
0	4994401	142.016611545507	0
0	4995301	142.038946135663	0.022334590155992
0	4995319	142.039313725047	0.022702179540005
0	4995329	142.039534309804	0.022922764296993
0	4995354	142.040078591919	0.02346704641198
0	4995392	142.040843458791	0.024231913283984
0	4995716	142.049045893716	0.032434348208994
0	4996125	142.059412290241	0.042800744733995
0	4996132	142.059418834139	0.042807288631991
0	4996640	142.072097791727	0.055486246219999
0	4996664	142.072862658599	0.056251113092003
0	4997730	142.101413010438	0.08480146493099
0	5033017	143.016881814777	0
0	5034143	143.039024082057	0.022142267279975
0	5034179	143.039788948929	0.022907134151978
0	5034221	143.040709349329	0.023827534551998
0	5034389	143.044202401702	0.027320586924986
0	5034425	143.044790575843	0.027908761065987
0	5034641	143.048756250726	0.031874435948993
0	5035189	143.059741215405	0.042859400627975
0	5035436	143.064675100178	0.047793285400985
0	5036001	143.077629225678	0.060747410901001
0	5036024	143.07839409255	0.061512277772977
0	5036747	143.102812102529	0.085930287751978
0	5069570	144.017152084047	0
0	5070535	144.039534307804	0.022382223757006
0	5070556	144.04001630384	0.022864219793007
0	5070563	144.040122481945	0.022970397898007
0	5070595	144.040781170712	0.023629086665011
0	5070634	144.041546037584	0.024393953537015
0	5071004	144.049748472509	0.032596388462025
0	5071437	144.06000700628	0.042854922233005
0	5071442	144.060024821777	0.042872737730022
0	5071951	144.072685963868	0.055533879821013
0	5071985	144.07345083074	0.056298746693017
0	5073081	144.102494089518	0.085342005471006
0	5107518	145.017422353317	0
0	5108396	145.039629574006	0.022207220689012
0	5108401	145.039636613593	0.022214260276002
0	5108432	145.040217748147	0.022795394830013
0	5108441	145.040401480465	0.022979127148005
0	5108486	145.041321880865	0.023899527547997
0	5108749	145.049368782262	0.03194642894502
0	5109119	145.060102272482	0.04267991916501
0	5109140	145.060702609831	0.043280256514009
0	5109551	145.07278123007	0.055358876753019
0	5109581	145.073546096942	0.056123743625022
0	5110484	145.102319720628	0.084897367311015
0	5138220	146.017744933462	0
0	5139083	146.040449102711	0.02270416924901
0	5139111	146.041037276852	0.023292343390011
0	5139824	146.060921801187	0.043176867725009
0	5140294	146.073600758775	0.055855825313017
0	5140328	146.074365625647	0.056620692185021
0	5141187	146.096681759069	0.078936825607002
0	5141223	146.097446625941	0.079701692479006
0	5141252	146.098211492813	0.080466559351009
0	5141442	146.103036189903	0.085291256441025
0	5141561	146.106413927738	0.08866899427602
0	5141678	146.109852830189	0.092107896727015
0	5170883	147.018067513607	0
0	5171682	147.039766296021	0.021698782413978
0	5171701	147.040209780887	0.022142267280003
0	5171716	147.040354470162	0.022286956554979
0	5171778	147.041739514631	0.023672001023982
0	5171814	147.042504381503	0.024436867895986
0	5172061	147.049941949556	0.031874435948993
0	5172431	147.060238994497	0.042171480889976
0	5172450	147.060759112484	0.042691598876985
0	5172870	147.072917952085	0.054850438477985
0	5172892	147.073682818957	0.055615305349988
0	5173836	147.103087445268	0.08501993166098
0	5203038	148.018390093752	0
0	5203857	148.040563076009	0.02217298225699
0	5203873	148.040974647259	0.022584553506988
0	5203885	148.04115125015	0.022761156397991
0	5203906	148.041739514131	0.023349420378992
0	5203951	148.042504381003	0.024114287250995
0	5204269	148.050706815928	0.032316722176006
0	5204669	148.061035774485	0.042645680732988
0	5204681	148.061213361046	0.042823267293983
0	5205167	148.073714732073	0.055324638320997
0	5205191	148.074479598945	0.056089505193
0	5206236	148.103416807224	0.08502671347199
0	5237779	149.018390094552	0
0	5238686	149.040807525447	0.022417430895018
0	5238711	149.041395699588	0.023005605036019
0	5239518	149.061280223923	0.042890129371017
0	5240055	149.073959181511	0.055569086958997
0	5240100	149.074724048383	0.056333953831
0	5241255	149.103230814784	0.084840720231995
0	5241569	149.111150306462	0.092760211910019
0	5241646	149.112680040206	0.094289945653998
0	5241680	149.113444907078	0.095054812526001
0	5241959	149.120882475131	0.10249238057901
0	5242180	149.126311311526	0.10792121697401
0	5275416	150.018390095352	0
0	5276300	150.040807526247	0.02241743089499
0	5276305	150.04086711839	0.022477023037993
0	5276328	150.041395700388	0.023005605035991
0	5276388	150.042396852134	0.024006756782001
0	5276423	150.043161719006	0.024771623654004
0	5276707	150.050599287059	0.032209191706983
0	5277131	150.061081694229	0.042691598876985
0	5277147	150.061280224723	0.042890129370988
0	5277643	150.073959182311	0.055569086958997
0	5277682	150.074724049183	0.056333953831
0	5278805	150.103230815584	0.084840720231995
0	5312626	151.018390096152	0
0	5313513	151.040807527047	0.022417430895018
0	5313518	151.04086711919	0.022477023037993
0	5313541	151.041395701188	0.023005605036019
0	5313560	151.041631986062	0.023241889909997
0	5313607	151.042396852934	0.024006756782001
0	5313920	151.050599287859	0.032209191707011
0	5314322	151.061081695029	0.042691598877013
0	5314337	151.061280225523	0.042890129371017
0	5314839	151.073959183111	0.055569086958997
0	5314873	151.074724049983	0.056333953831
0	5315928	151.103230816384	0.084840720231995
0	5348500	152.018390096952	0
0	5349372	152.040807527847	0.02241743089499
0	5349380	152.04086711999	0.022477023037993
0	5349411	152.041395701988	0.023005605035991
0	5349468	152.042396853734	0.024006756782001
0	5349494	152.043161720606	0.024771623654004
0	5349765	152.050599288659	0.032209191706983
0	5350194	152.061081695829	0.042691598876985
0	5350216	152.061280226323	0.042890129370988
0	5350737	152.07418119885	0.055791101897995
0	5350776	152.074946065722	0.056555968769999
0	5351870	152.103076340838	0.084686243885983
0	5386513	153.018660366222	0
0	5387414	153.040677052507	0.022016686284985
0	5387467	153.041567500374	0.022907134151978
0	5387478	153.041721920771	0.023061554549002
0	5387505	153.042332367246	0.023672001023982
0	5387544	153.043097234118	0.024436867895986
0	5387827	153.050534802171	0.031874435948993
0	5388276	153.061205269883	0.042544903660996
0	5388303	153.061731381226	0.043071015003989
0	5388822	153.074218350711	0.055557984488985
0	5388890	153.075748084455	0.057087718232992
0	5389969	153.103292934521	0.084632568298986
0	5424587	154.018930635492	0
0	5425257	154.040629417906	0.021698782414006
0	5425282	154.041217592047	0.022286956555007
0	5425868	154.061102116382	0.042171480890005
0	5426233	154.07378107397	0.054850438478013
0	5426259	154.074545940842	0.055615305350017
0	5426994	154.100920523354	0.081989887862022
0	5427020	154.101685390226	0.082754754734026
0	5427045	154.102450257098	0.083519621606001
0	5427074	154.103454059487	0.084523423995023
0	5427289	154.110652692023	0.091722056531012
0	5428014	154.13568260157	0.11675196607803
0	5461529	155.019200904762	0
0	5462481	155.041480480696	0.022279575934022
0	5462493	155.041853398789	0.022652494027
0	5462513	155.042245347568	0.023044442805997
0	5462521	155.04244157293	0.023240668168
0	5462589	155.043775081312	0.024574176550004
0	5462919	155.051212649365	0.032011744603011
0	5463377	155.062326097265	0.043125192502998
0	5463382	155.062343912762	0.043143008000015
0	5463891	155.075623991343	0.05642308658102
0	5463920	155.076388858215	0.057187953452996
0	5464918	155.103724328757	0.084523423995023
0	5499075	156.019471174032	0
0	5500005	156.041948664991	0.022477490959005
0	5500018	156.042108037914	0.022636863882013
0	5500040	156.042536839132	0.023065665100006
0	5500060	156.042872904786	0.023401730754017
0	5500107	156.043637771658	0.024166597625992
0	5500456	156.051840206583	0.032369032551003
0	5500902	156.062162772909	0.042691598877013
0	5500930	156.062532401267	0.043061227235
0	5501403	156.075100321055	0.055629147023012
0	5501437	156.075865187927	0.056394013895016
0	5502484	156.104172432934	0.084701258902015
0	5535819	157.019741443302	0
0	5536686	157.041758129587	0.022016686285014
0	5536718	157.042346303728	0.022604860426014
0	5537499	157.062286346963	0.042544903660996
0	5537990	157.074909785651	0.055168342348992
0	5538013	157.075674652523	0.055933209220996
0	5539165	157.104636985959	0.084895542656994
0	5541216	157.155393304018	0.135651860716
0	5541259	157.15615817089	0.136416727588
0	5541284	157.156923037762	0.13718159446
0	5541629	157.165125472687	0.14538402938501
0	5541839	157.170554309082	0.15081286578001
0	5574277	158.020011712572	0
0	5575296	158.042872902786	0.022861190214002
0	5575308	158.043029744071	0.023018031498992
0	5575335	158.043617918212	0.023606205639993
0	5575340	158.043637769658	0.023626057086005
0	5575386	158.04440263653	0.024390923958009
0	5575739	158.052605071455	0.032593358882991
0	5576156	158.062703311449	0.042691598876985
0	5576197	158.063502442547	0.043490729974991
0	5576719	158.076181400135	0.056169687562999
0	5576757	158.076946267007	0.056934554435003
0	5577825	158.10471754202	0.084705829447984
0	5612936	159.020281981842	0
0	5613815	159.041980764256	0.021698782414006
0	5613844	159.042568235114	0.022286253272
0	5613851	159.042568938397	0.022286956555007
0	5613904	159.043333101986	0.023051120144004
0	5613947	159.044097968858	0.023815987015979
0	5614296	159.052300403783	0.03201842194099
0	5614753	159.062453462732	0.042171480890005
0	5614777	159.062973580719	0.042691598876985
0	5615247	159.07513242032	0.054850438477985
0	5615287	159.075897287192	0.055615305349988
0	5616594	159.105894257583	0.085612275740999
0	5650204	160.020552251112	0
0	5651106	160.042251033526	0.021698782413978
0	5651136	160.042839207667	0.022286956554979
0	5651986	160.062723732002	0.042171480889976
0	5652034	160.063835837594	0.043283586481976
0	5652069	160.064600704466	0.04404845335398
0	5652117	160.065365571338	0.044813320225984
0	5652432	160.073568006263	0.053015755150994
0	5652547	160.076627473751	0.056075222638981
0	5652610	160.078157207495	0.057604956382988
0	5652631	160.07849470549	0.057942454377979
0	5653641	160.105075675107	0.084523423994995
0	5685580	161.020846368559	0
0	5686422	161.043165267417	0.022318898858003
0	5686440	161.043427259302	0.022580890743001
0	5686458	161.043930134289	0.023083765729979
0	5686482	161.044472127566	0.02362575900699
0	5686494	161.044695001161	0.023848632601982
0	5686807	161.052897436086	0.032051067526993
0	5687229	161.063537967436	0.042691598876985
0	5687256	161.063955476678	0.043109108118983
0	5687734	161.076578915366	0.055732546806979
0	5687760	161.077343782238	0.056497413678983
0	5688772	161.105369792554	0.084523423994995
0	5721059	162.021140486006	0
0	5722058	162.043282753286	0.022142267280003
0	5722097	162.044012742511	0.022872256504996
[...]
0	6110636	173.079871842388	0.055615305350017
0	6111307	173.103860115522	0.079603578484011
0	6111328	173.104624982394	0.080368445356015
0	6111350	173.105393049458	0.081136512420017
0	6111459	173.108947762784	0.084691225746013
0	6111580	173.113592284191	0.089335747153001
0	6112221	173.136632259794	0.11237572275601
0	6143486	174.024526806308	0
0	6144436	174.046669073588	0.022142267280003
0	6144468	174.04743394046	0.022907134152007
0	6144501	174.048198807332	0.023672001024011
0	6144605	174.050659421751	0.026132615443004
0	6144637	174.051247595892	0.026720789584004
0	6144849	174.056401242257	0.031874435949021
0	6145294	174.067479884378	0.042953078070013
0	6145442	174.071132120227	0.046605313919002
0	6145968	174.083811077815	0.059284271507011
0	6146005	174.084575944687	0.060049138379014
0	6146964	174.109050230303	0.084523423994995
0	6181887	175.024797075578	0
0	6182850	175.046939342858	0.022142267280003
0	6182891	175.047544836807	0.022747761228999
0	6182904	175.04770420973	0.022907134152007
0	6182921	175.048133010948	0.02333593537
0	6182975	175.049233943474	0.024436867896014
0	6183297	175.056671511527	0.031874435948993
0	6183818	175.068017535283	0.043220459704997
0	6183840	175.068334691738	0.043537616159995
0	6184348	175.080696492871	0.055899417293006
0	6184377	175.081461359743	0.056664284165009
0	6185590	175.10976860475	0.084971529172009
0	6219209	176.024797077578	0
0	6222659	176.106359287152	0.081562209574003
0	6222690	176.106947461293	0.082150383715003
0	6222828	176.10980631888	0.085009241302004
0	6223593	176.126943023428	0.10214594585
0	6224143	176.139510943216	0.11471386563801
0	6224174	176.140275810088	0.11547873250998
0	6229887	176.273022741074	0.24822566349599
0	6229916	176.273787607946	0.24899053036799
0	6229990	176.27531734169	0.250520264112
0	6230346	176.282754909743	0.257957832165
0	6230739	176.290633880282	0.265836802704
0	6263334	177.024797079578	0
0	6264493	177.050787998458	0.025990918879984
0	6264534	177.05155286533	0.026755785751988
0	6264567	177.052317732202	0.027520652623991
0	6264939	177.060520167127	0.035723087549002
0	6265291	177.068551471002	0.043754391423988
0	6266970	177.109320503573	0.084523423994995
0	6269195	177.162131870247	0.137334790669
0	6269224	177.162720044388	0.13792296481
0	6270081	177.182646096507	0.15784901692899
0	6270614	177.195313033994	0.17051595441598
0	6270655	177.196077900866	0.17128082128798
0	6306682	178.024797081578	0
0	6309308	178.085565271617	0.060768190038999
0	6309336	178.086153445758	0.06135636418
0	6309990	178.106149007893	0.081351926315023
0	6310102	178.109466849727	0.084669768149013
0	6310396	178.118716927681	0.093919846103006
0	6310447	178.120246661425	0.095449579847013
0	6310649	178.126686156642	0.10188907506401
0	6310672	178.127451023514	0.10265394193601
0	6310729	178.128980757258	0.10418367568002
0	6310952	178.136418325311	0.111621243733
0	6311741	178.164358569202	0.13956148762401
0	6346551	179.024797083578	0
0	6350393	179.109320507573	0.084523423994995
0	6351255	179.12798845221	0.103191368632
0	6351290	179.128576626351	0.103779542773
0	6351376	179.13001608861	0.10521900503201
0	6351412	179.130780955482	0.10598387190402
0	6351496	179.132310689226	0.10751360564799
0	6351789	179.138983390407	0.114186306829
0	6352162	179.147474894482	0.12267781090401
0	6352211	179.148461150686	0.123664067108
0	6352765	179.161140108274	0.136343024696
0	6352799	179.161904975146	0.13710789156801
0	6390077	180.024797085578	0
0	6391092	180.046939352858	0.022142267280003
0	6391123	180.04770421973	0.022907134152007
0	6391163	180.04862462013	0.023827534551998
0	6391541	180.056671521527	0.031874435948993
0	6392070	180.068182368402	0.043385282824005
0	6393842	180.109920516607	0.08512343102899
0	6396931	180.18534642126	0.16054933568199
0	6396954	180.185868855392	0.16107176981399
0	6397828	180.205521119863	0.18072403428499
0	6398374	180.218089039651	0.193291954073
0	6398404	180.218853906523	0.19405682094501
0	6429198	181.024797087578	0
0	6432489	181.097666065602	0.07286897802399
0	6432520	181.098254239743	0.073457152164991
0	6433066	181.10980632888	0.085009241301975
0	6433467	181.118249801878	0.093452714299985
0	6434093	181.131099339663	0.10630225208499
0	6434133	181.131864206535	0.10706711895699
0	6438600	181.228408206458	0.20361111887999
0	6438633	181.22917307333	0.20437598575199
0	6438699	181.230702807074	0.205905719496
0	6439016	181.238140375127	0.21334328754898
0	6439379	181.246631879202	0.22183479162399
0	6473658	182.024797089578	0
0	6474599	182.04723419137	0.022437101792008
0	6474629	182.047999058242	0.023201968664011
0	6474668	182.048763925114	0.023966835536015
0	6475004	182.056966360039	0.032169270460997
0	6475426	182.067488688455	0.042691598877013
0	6477138	182.109320513573	0.084523423995023
0	6478992	182.153438648697	0.12864155911902
0	6479026	182.154026822838	0.12922973326002
0	6479893	182.173911347173	0.14911425759502
0	6480457	182.186590304761	0.161793215183
0	6480497	182.187355171633	0.162558082055
0	6515546	183.024797091578	0
0	6516122	183.046495873992	0.021698782414006
0	6516146	183.047084048133	0.022286956555007
0	6516676	183.066968572468	0.042171480890005
0	6516996	183.079647530056	0.054850438478013
0	6517014	183.080412396928	0.055615305349988
0	6517755	183.109320515573	0.084523423994995
0	6519935	183.199967817734	0.17517072615601
0	6519961	183.200732684606	0.17593559302802
0	6520003	183.20226241835	0.17746532677199
0	6520192	183.209699986403	0.184902894825
0	6520677	183.229217094126	0.20442000254801
0	6547662	184.024797091578	0
0	6548487	184.046939358858	0.022142267280003
0	6548504	184.047322896415	0.022525804836988
0	6548521	184.04770422573	0.022907134152007
0	6548535	184.047911070556	0.023113978977989
0	6548580	184.04862462613	0.023827534551998
0	6548871	184.056671527527	0.031874435948993
0	6549286	184.067488690455	0.042691598877013
0	6549301	184.067795594891	0.042998503313015
0	6549762	184.080474552479	0.055677460900995
0	6549807	184.081239419351	0.056442327772999
0	6550766	184.109997416138	0.085200324559992
0	6581033	185.024797091578	0
0	6581840	185.046495873992	0.021698782414006
0	6581859	185.046939358858	0.022142267280003
0	6581869	185.047084048133	0.022286956555007
0	6581888	185.04770422573	0.022907134152007
0	6581925	185.048469092602	0.023672001024011
0	6582204	185.056671527527	0.031874435948993
0	6582552	185.066968572468	0.042171480890005
0	6582591	185.068037025522	0.043239933943994
0	6582973	185.079647530056	0.054850438478013
0	6582995	185.080412396928	0.055615305349988
0	6583943	185.109320515573	0.084523423994995
0	6614331	186.024797091578	0
0	6615212	186.047005385714	0.022208294135993
0	6615224	186.047249244697	0.022452153118991
0	6615256	186.047770252586	0.022973161007997
0	6615266	186.047837418838	0.023040327259991
0	6615302	186.04862462613	0.023827534551998
0	6615634	186.056737554383	0.031940462805011
0	6616112	186.067614262476	0.04281717089799
0	6616123	186.067721943173	0.042924851594989
0	6616698	186.081026137951	0.056229046373005
0	6616735	186.081791004823	0.056993913245009
0	6617827	186.10972639102	0.084929299441995
0	6649190	187.025053500234	0
0	6650138	187.046752282648	0.021698782413978
0	6650173	187.047340456789	0.022286956554979
0	6651035	187.067224981124	0.042171480889976
0	6651589	187.079903938712	0.054850438477985
0	6651632	187.080668805584	0.055615305349988
0	6652916	187.109956338803	0.084902838568979
0	6653597	187.124863309866	0.099809809631978
0	6653636	187.125628176738	0.10057467650398
0	6653709	187.127157910482	0.10210441024799
0	6654036	187.134595478535	0.109541978301
0	6654367	187.142474449074	0.11742094883999
0	6690132	188.02530990889	0
0	6691067	188.047340455189	0.022030546298993
0	6691081	188.04745217617	0.022142267280003
0	6691101	188.04792862933	0.022618720439993
0	6691120	188.048217043042	0.022907134152007
0	6691154	188.048981909914	0.023672001024011
0	6691496	188.057184344839	0.031874435948993
0	6691973	188.068064709674	0.042754800783996
0	6691994	188.068294431935	0.042984523044993
0	6692499	188.080492111253	0.055182202363
0	6692540	188.081256978125	0.055947069235003
0	6693733	188.110077511034	0.084767602144012
0	6728821	189.025566317546	0
0	6729512	189.04726509996	0.021698782413978
0	6729542	189.047853274101	0.022286956554979
0	6730151	189.067737798436	0.042171480889976
0	6730516	189.080416756024	0.054850438477985
0	6730541	189.081181622896	0.055615305349988
0	6731396	189.110089741541	0.084523423994995
0	6731582	189.116667941098	0.091101623551992
0	6731610	189.11743280797	0.091866490423996
0	6731635	189.118197674842	0.092631357296
0	6731844	189.126400109767	0.10083379222098
0	6732580	189.153419953258	0.127853635712
0	6765700	190.025822726202	0
0	6766655	190.048667507529	0.022844781326995
0	6766691	190.04925568167	0.023432955467996
0	6767540	190.069251243805	0.04342851760299
0	6768084	190.081819163593	0.055996437391002
0	6768121	190.082584030465	0.056761304263006
0	6768474	190.090748596674	0.064925870471995
0	6768510	190.091513463546	0.065690737343999
0	6768554	190.09228153061	0.066458804408001
0	6768905	190.100480765343	0.074658039141013
0	6769179	190.106982335474	0.081159609271992
0	6769346	190.110808115388	0.084985389185988
0	6806384	191.026079134858	0
0	6807286	191.048577525418	0.022498390559974
0	6807297	191.048667505929	0.022588371070981
0	6807342	191.04925568007	0.023176545211982
0	6807353	191.04934239229	0.023263257431978
0	6807390	191.050107259162	0.024028124303982
0	6807727	191.058309694087	0.032230559228992
0	6808234	191.069894935246	0.043815800387989
0	6808244	191.069910989491	0.043831854632998
0	6808708	191.081819161993	0.055740027134988
0	6808741	191.082584028865	0.056504894006991
0	6809841	191.110808113788	0.084728978929974
0	6843193	192.026335543514	0
0	6843821	192.048034325928	0.021698782414006
0	6843849	192.048622500069	0.022286956555007
0	6844390	192.068507024404	0.042171480890005
0	6844726	192.081185981992	0.054850438478013
0	6844749	192.081950848864	0.055615305349988
0	6845478	192.111040629274	0.084705085759992
0	6848093	192.213414799906	0.187079256392
0	6848112	192.214179666778	0.187844123264
0	6848160	192.215709400522	0.18937385700801
0	6848352	192.223146968575	0.19681142506101
0	6848953	192.24434934357	0.21801380005601
0	6878024	193.026629660961	0
0	6878860	193.048328443375	0.021698782414006
0	6878881	193.048916617516	0.022286956555007
0	6878919	193.049720949419	0.023091288458005
0	6878967	193.050485816291	0.023856155330009
0	6879007	193.051250683163	0.024621022202012
0	6879312	193.059453118088	0.032823457126995
0	6879687	193.068801141851	0.042171480890005
0	6879709	193.069526246084	0.042896585123003
0	6880143	193.081480099439	0.054850438478013
0	6880186	193.082244966311	0.055615305350017
0	6881203	193.111153084956	0.084523423994995
0	6913069	194.026923778408	0
0	6913987	194.049066045688	0.022142267280003
0	6914006	194.049504730304	0.022580951896003
0	6914023	194.04983091256	0.022907134152007
0	6914043	194.050092904445	0.023169126037004
0	6914068	194.05075131296	0.023827534551998
0	6914358	194.058798214357	0.031874435948993
0	6914774	194.06997742878	0.043053650372002
0	6914784	194.070090182936	0.043166404527994
0	6915250	194.082656386368	0.05573260796001
0	6915274	194.08342125324	0.056497474832014
0	6916239	194.111535740439	0.084611962031005
0	6947911	195.027217895855	0
0	6948529	195.048916678269	0.021698782414006
0	6948552	195.04950485241	0.022286956555007
0	6949091	195.069389376745	0.042171480890005
0	6949229	195.074276024244	0.047058128389011
0	6949257	195.075040891116	0.047822995261015
0	6949280	195.075805757988	0.048587862133019
0	6949447	195.082068334333	0.054850438478013
0	6949477	195.082833201205	0.055615305350017
0	6949510	195.084008192913	0.056790297058001
0	6949970	195.102009151181	0.074791255326005
0	6950212	195.11174131985	0.084523423994995
0	6979361	196.027512013302	0
0	6980173	196.04950485221	0.021992838908005
0	6980191	196.049873282155	0.022361268853018
0	6980203	196.050093026351	0.022581013049006
0	6980237	196.050638149027	0.023126135725022
0	6980278	196.051403015899	0.023891002596997
0	6980558	196.059605450824	0.032093437522008
0	6980924	196.070033069586	0.042521056284016
0	6980937	196.070203612179	0.042691598877013
0	6981375	196.083092492589	0.055580479287016
0	6981399	196.083857359461	0.05634534615902
0	6982367	196.112035437297	0.084523423995023
0	7014981	197.027806130749	0
0	7015820	197.049948398029	0.022142267280003
0	7015855	197.050713264901	0.022907134152007
0	7015876	197.051088281069	0.02328215032
0	7015889	197.051478131773	0.023672001024011
0	7015897	197.051610715201	0.023804584452023
0	7016216	197.059680566698	0.031874435949021
0	7016654	197.070497729626	0.042691598877013
0	7016683	197.071153776462	0.043347645712998
0	7017143	197.08383273405	0.056026603301007
0	7017188	197.084597600922	0.05679147017301
0	7018141	197.112504257089	0.084698126340015
0	7048992	198.028100248196	0
0	7049672	198.04979903061	0.021698782414006
0	7049700	198.050387204751	0.022286956555007
0	7050304	198.070271729086	0.042171480890005
0	7050690	198.082950686674	0.054850438478013
0	7050732	198.084480420418	0.056380172222021
0	7051351	198.104914605523	0.076814357327009
0	7051374	198.105679472395	0.077579224199013
0	7051397	198.106599872795	0.078499624599004
0	7051581	198.112623672191	0.084523423995023
0	7051648	198.114646774192	0.086546525995999
0	7052396	198.141514284347	0.113414036151
0	7083539	199.028100248196	0
0	7087173	199.113316246396	0.085215998199999
0	7088010	199.132865607654	0.10476535945801
0	7088044	199.133388041786	0.10528779359001
0	7088417	199.141321348435	0.113221100239
0	7088459	199.142086215307	0.11398596711101
0	7088499	199.143006615707	0.11490636751103
0	7088869	199.151053517104	0.12295326890802
0	7088953	199.152929268457	0.12482902026102
0	7089263	199.160157554715	0.13205730651902
0	7089497	199.165608226045	0.13750797784903
0	7089536	199.166373092917	0.138272844721
0	7125145	200.028100248196	0
0	7126086	200.050467582548	0.022367334352026
0	7126121	200.05123244942	0.023132201224001
0	7126165	200.051997316292	0.023897068096005
0	7126512	200.060199751217	0.032099503021016
0	7126938	200.070791847073	0.042691598877013
0	7128635	200.113212286096	0.085112037900018
0	7128696	200.114707385451	0.086607137255015
0	7128728	200.115295559592	0.087195311396016
0	7129618	200.135291121727	0.10719087353101
0	7130198	200.147859041515	0.11975879331902
0	7130228	200.148623908387	0.12052366019103
0	7166114	201.028100248196	0
0	7167243	201.050242515476	0.022142267280003
0	7167277	201.051007382348	0.022907134152007
0	7167326	201.051927782748	0.023827534552026
0	7167723	201.059974684145	0.031874435949021
0	7168315	201.071791446244	0.043691198048009
0	7170042	201.105192638895	0.077092390699022
0	7170070	201.105780813036	0.077680564840023
0	7170486	201.113696499937	0.085596251741009
0	7171135	201.126102930067	0.098002681871009
0	7171762	201.138344294959	0.110244046763
0	7171838	201.139874028703	0.11177378050701
0	7203950	202.028100248196	0
0	7204902	202.050813553033	0.022713304837026
0	7204930	202.051401727174	0.023301478977999
0	7205824	202.071286251509	0.043186003313025
0	7206372	202.083965209097	0.055864960901005
0	7206405	202.084730075969	0.056629827773008
0	7207679	202.112787842857	0.084687594661006
0	7212369	202.222347380372	0.194247132176
0	7212416	202.223112247244	0.19501199904801
0	7212450	202.224032647644	0.19593239944803
0	7212776	202.232079549041	0.20397930084502
0	7213034	202.238733452508	0.21063320431202
0	7245629	203.028100248196	0
0	7246575	203.050242515476	0.022142267280003
0	7246617	203.050989901315	0.022889653119023
0	7246626	203.051007382348	0.022907134152007
0	7246657	203.051578075456	0.023477827260024
0	7246673	203.051927782748	0.023827534552026
0	7246993	203.059974684145	0.031874435949021
0	7247473	203.071462599791	0.043362351595022
0	7247478	203.071468518005	0.043368269809008
0	7248010	203.084141557379	0.056041309183001
0	7248043	203.084906424251	0.056806176055005
0	7249123	203.113092047638	0.084991799442008
0	7284711	204.028100249196	0
0	7285626	204.050242516476	0.022142267280003
0	7285664	204.051007383348	0.022907134152007
0	7285671	204.051057322093	0.022957072896986
0	7285698	204.051579756225	0.023479507029009
0	7285753	204.052537117092	0.024436867895986
0	7286059	204.059974685145	0.031874435948993
0	7286521	204.070791848073	0.042691598876985
0	7286552	204.071246778824	0.04314652962799
0	7287128	204.084509980313	0.056409731116986
0	7287156	204.085274847185	0.05717459798899
0	7288237	204.112623673191	0.084523423994995
0	7319998	205.028100250196	0
0	7320953	205.04984516647	0.021744916274002
0	7320988	205.050433340611	0.022333090415003
0	7321850	205.070317864946	0.042217614750001
0	7322395	205.082996822534	0.054896572338009
0	7322433	205.083761689406	0.055661439210013
0	7323643	205.113049222625	0.084948972429004
0	7330403	205.27827974578	0.25017949558401
0	7330445	205.279044612652	0.25094436245601
0	7330480	205.279809479524	0.25170922932801
0	7330844	205.288011914449	0.259911664253
0	7331114	205.29405328438	0.26595303418401
0	7360723	206.028100251196	0
0	7361613	206.050242518476	0.022142267279975
0	7361648	206.05089779905	0.022797547853997
0	7361663	206.051007385348	0.022907134151978
0	7361682	206.051485973191	0.023385721994998
0	7361735	206.052537119092	0.024436867895986
0	7362029	206.059974687145	0.031874435948993
0	7362470	206.071315252228	0.043215001031996
0	7362495	206.071798213854	0.043697962658001
0	7362958	206.084049455114	0.055949203917976
0	7362986	206.084814321986	0.05671407078998
0	7364046	206.113218749206	0.08511849800999
0	7397574	207.028100251996	0
0	7398441	207.050242519276	0.022142267280003
0	7398467	207.050795460669	0.022695208673014
0	7398485	207.051007386148	0.022907134152007
0	7398497	207.05138363481	0.023283382814014
0	7398520	207.051927786548	0.023827534551998
0	7398869	207.059974687945	0.031874435948993
0	7399338	207.071268159145	0.043167907149012
0	7399343	207.071315253028	0.043215001031996
0	7399848	207.083947116733	0.055846864736992
0	7399880	207.084711983605	0.056611731608996
0	7400948	207.113218750006	0.08511849800999
0	7434342	208.028100252796	0
0	7435031	208.04979903521	0.021698782413978
0	7435056	208.050387209351	0.022286956554979
0	7435662	208.070271733686	0.042171480889976
0	7436009	208.082950691274	0.054850438477985
0	7436031	208.083715558146	0.055615305349988
0	7436833	208.113345427449	0.085245174652982
0	7437498	208.138375336996	0.1102750842
0	7437529	208.139140203868	0.111039951072
0	7437574	208.140669937612	0.11256968481598
0	7437771	208.148107505665	0.12000725286899
0	7438270	208.167624613388	0.13952436059199
0	7469101	209.028100253596	0
0	7469958	209.050242520876	0.022142267280003
0	7469987	209.050795462269	0.022695208673014
0	7469999	209.051007387748	0.022907134152007
0	7470014	209.05138363641	0.023283382814014
0	7470032	209.051927788148	0.023827534551998
0	7470355	209.059974689545	0.031874435948993
0	7470772	209.071268160745	0.043167907149012
0	7470802	209.071886683204	0.043786429607991
0	7471264	209.083947118333	0.055846864736992
0	7471291	209.084711985205	0.056611731608996
0	7472343	209.113095221042	0.084994967445994
0	7504722	210.028100254596	0
0	7505601	210.050242521876	0.022142267280003
0	7505624	210.050706416575	0.022606161979013
0	7505641	210.051007388748	0.022907134152007
0	7505651	210.051294590716	0.023194336120014
0	7505673	210.051927789148	0.023827534551998
0	7506042	210.059974690545	0.031874435949021
0	7506533	210.070791853473	0.042691598877013
0	7506557	210.071179115051	0.043078860455012
0	7507102	210.084069887669	0.055969633073005
0	7507136	210.084834754541	0.056734499945009
0	7508197	210.112623678591	0.084523423995023
0	7544149	211.028100255596	0
0	7545029	211.04984517187	0.021744916274002
0	7545064	211.050414958368	0.022314702772007
0	7545071	211.050433346011	0.022333090415003
0	7545114	211.05117982524	0.023079569643983
0	7545144	211.051944692112	0.023844436515986
0	7545497	211.060147127037	0.032046871440997
0	7545918	211.070428908146	0.042328652549998
0	7545945	211.07114282114	0.043042565543999
0	7546443	211.082996827934	0.054896572337981
0	7546477	211.083761694806	0.055661439209985
0	7547714	211.113049228025	0.084948972429004

