version 2
run Net10-0-20181105-11:06:43-5936
attr configname Net10
attr datetime 20181105-11:06:43
attr experiment Net10
attr inifile omnetpp.ini
attr iterationvars ""
attr iterationvarsf ""
attr measurement ""
attr network mogp.networks.Net10
attr processid 5936
attr repetition 0
attr replication #0
attr resultdir results
attr runnumber 0
attr seedset 0
param **.eventStorage.packetLength "1024 byte"
param **.node[*].operator[*].packetLength "1024 byte"

vector 0 Net10.eventStorage "End-to-End Delay" ETV
0	98	5	0
0	105	5.00025	0
0	112	5.0005	0
0	119	5.00075	0
0	126	5.001	0
0	133	5.00125	0
0	140	5.0015	0
0	147	5.00175	0
0	154	5.002	0
0	161	5.00225	0
0	168	5.0025	0
0	175	5.00275	0
0	182	5.003	0
0	189	5.00325	0
0	196	5.0035	0
0	203	5.00375	0
0	210	5.004	0
0	217	5.00425	0
0	169617	11.016747035541	0.010497035541
0	169640	11.017244071082	0.010744071082001
0	170296	11.039689080194	0.031689080194001
0	170517	11.047151463645	0.042151463645
0	181938	11.449005665984	0.444255665984
0	181960	11.449724041431	0.444474041431
0	181986	11.450442416878	0.444942416878
0	182021	11.451160792325	0.445410792325
0	182052	11.451879167772	0.445879167772
0	182089	11.452948314173	0.445198314173
0	182118	11.45366668962	0.44541668962
0	182143	11.454385065067	0.445885065067
0	182175	11.455103440514	0.446353440514
0	182206	11.455821815961	0.446821815961
0	182372	11.46141274061	0.45466274061
0	182393	11.461909776151	0.454909776151
0	182414	11.462406811692	0.455156811692
0	182447	11.463400882774	0.455900882774
0	340460	17.021247035541	0.010497035541
0	340481	17.021744071082	0.010744071082001
0	341149	17.044189080194	0.031689080193999
0	341372	17.051651463645	0.042151463645002
0	362345	17.782650945602	0.773400945602
0	362372	17.783369321049	0.773619321049
0	362397	17.784087696496	0.774087696496
0	362427	17.784806071943	0.774556071943
0	362461	17.78552444739	0.77502444739
0	362499	17.786593593791	0.774343593791
0	362526	17.787311969238	0.774561969238
0	362555	17.788030344685	0.775030344685
0	362584	17.788748720132	0.775498720132
0	362609	17.789467095579	0.775967095579
0	362779	17.795058020228	0.783808020228
0	362797	17.795555055769	0.784055055769
0	362837	17.796549126851	0.784799126851
0	362855	17.797046162392	0.785046162392
0	511305	23.025747035541	0.010497035541
0	511327	23.026244071082	0.010744071082001
0	511994	23.048689080194	0.031689080193999
0	512218	23.056151463645	0.042151463644998
0	542799	24.118048513304	1.104298513304
0	542827	24.118766888751	1.104516888751
0	542847	24.119485264198	1.104985264198
0	542878	24.120203639645	1.105453639645
0	542913	24.120922015092	1.105922015092
0	542952	24.121991161493	1.105241161493
0	542983	24.12270953694	1.10545953694
0	543008	24.123427912387	1.105927912387
0	543039	24.124146287834	1.106396287834
0	543069	24.124864663281	1.106864663281
0	543243	24.130741106623	1.114991106623
0	543261	24.131238142164	1.115238142164
0	543286	24.131735177705	1.115485177705
0	543304	24.132232213246	1.115732213246
0	681008	29.030247035541	0.010497035541
0	681029	29.030744071082	0.010744071082001
0	681676	29.053189080194	0.031689080193999
0	681885	29.060651463645	0.042151463644998
0	727201	30.580048895075	1.561798895075
0	727227	30.580767270522	1.562017270522
0	727249	30.581485645969	1.562485645969
0	727283	30.582204021416	1.562954021416
0	727314	30.582922396863	1.563422396863
0	727352	30.583991543264	1.562741543264
0	727383	30.584709918711	1.562959918711
0	727408	30.585428294158	1.563428294158
0	727441	30.586146669605	1.563896669605
0	727471	30.586865045052	1.564365045052
0	727646	30.592455969701	1.572205969701
0	727668	30.592953005242	1.572453005242
0	727693	30.593450040783	1.572700040783
0	727731	30.594444111865	1.573444111865
0	853955	35.034747035541	0.010497035541
0	853979	35.035244071082	0.010744071082001
0	854632	35.057689080194	0.031689080194006
0	854857	35.065151463645	0.042151463645006
0	910694	37.038982772699	2.016232772699
0	910723	37.039701148146	2.016451148146
0	910745	37.040419523593	2.016919523593
0	910779	37.04113789904	2.01738789904
0	910810	37.041856274487	2.017856274487
0	910846	37.042925420888	2.017175420888
0	910877	37.043643796335	2.017393796335
0	910906	37.044362171782	2.017862171782
0	910934	37.045080547229	2.018330547229
0	910965	37.045798922676	2.018798922676
0	911135	37.051494071082	2.026744071082
0	911156	37.051991106623	2.026991106623
0	911188	37.052985177705	2.027735177705
0	911220	37.053979248787	2.028479248787
0	1025955	41.039247035541	0.010497035541
0	1025981	41.039744071082	0.010744071082001
0	1026639	41.062189080194	0.031689080194006
0	1026861	41.069651463645	0.042151463645006
0	1098107	43.58859755867	2.56134755867
0	1098131	43.589315934117	2.561565934117
0	1098158	43.590034309564	2.562034309564
0	1098188	43.590752685011	2.562502685011
0	1098219	43.591471060458	2.562971060458
0	1098260	43.592540206859	2.562290206859
0	1098290	43.593258582306	2.562508582306
0	1098312	43.593976957753	2.562976957753
0	1098344	43.5946953332	2.5634453332
0	1098372	43.595413708647	2.563913708647
0	1098542	43.601004633296	2.571754633296
0	1098576	43.601998704378	2.572498704378
0	1098608	43.60299277546	2.57324277546
0	1098630	43.603489811001	2.573489811001
0	1196407	47.043747035541	0.010497035540993
0	1196428	47.044244071082	0.010744071082001
0	1197103	47.066689080194	0.031689080193999
0	1197321	47.074151463645	0.042151463645006
0	1279619	49.961669320178	2.929919320178
0	1279647	49.962387695625	2.930137695625
0	1279673	49.963106071072	2.930606071072
0	1279702	49.963824446519	2.931074446519
0	1279736	49.964542821966	2.931542821966
0	1279771	49.965611968367	2.930861968367
0	1279805	49.966330343814	2.931080343814
0	1279830	49.967048719261	2.931548719261
0	1279861	49.967767094708	2.932017094708
0	1279885	49.968485470155	2.932485470155
0	1280051	49.974076394804	2.940326394804
0	1280070	49.974573430345	2.940573430345
0	1280109	49.975567501427	2.941317501427
0	1280144	49.976561572509	2.942061572509
0	1366400	53.048247035541	0.010497035541
0	1366420	53.048744071082	0.010744071082001
0	1367057	53.071189080194	0.031689080193999
0	1367273	53.078651463645	0.042151463645006
0	1460162	56.3934427325	3.3571927325
0	1460191	56.394161107947	3.357411107947
0	1460213	56.394879483394	3.357879483394
0	1460246	56.395597858841	3.358347858841
0	1460277	56.396316234288	3.358816234288
0	1460314	56.397385380689	3.358135380689
0	1460346	56.398103756136	3.358353756136
0	1460375	56.398822131583	3.358822131583
0	1460404	56.39954050703	3.35929050703
0	1460434	56.400258882477	3.359758882477
0	1460608	56.405994071082	3.367744071082
0	1460629	56.406491106623	3.367991106623
0	1460649	56.406988142164	3.368238142164
0	1460699	56.408479248787	3.369479248787
0	1537952	59.052747035541	0.010497035541
0	1537976	59.053244071082	0.010744071082001
0	1538638	59.075689080194	0.031689080193999
0	1538851	59.083151463645	0.042151463644998
0	1651320	63.01709169002	3.97634169002
0	1651348	63.017810065467	3.976560065467
0	1651371	63.018528440914	3.977028440914
0	1651399	63.019246816361	3.977496816361
0	1651430	63.019965191808	3.977965191808
0	1651474	63.021034338209	3.977284338209
0	1651503	63.021752713656	3.977502713656
0	1651529	63.022471089103	3.977971089103
0	1651557	63.02318946455	3.97843946455
0	1651587	63.023907839997	3.978907839997
0	1651772	63.030241106623	3.987491106623
0	1651789	63.030738142164	3.987738142164
0	1651814	63.031235177705	3.987985177705
0	1651833	63.031732213246	3.988232213246
0	1709160	65.057247035541	0.010497035540993
0	1709180	65.057744071082	0.010744071082001
0	1709838	65.080189080194	0.031689080193999
0	1710056	65.087651463645	0.042151463644998
0	1836493	69.313500847853	4.268250847853
0	1836515	69.3142192233	4.2684692233
0	1836542	69.314937598747	4.268937598747
0	1836573	69.315655974194	4.269405974194
0	1836617	69.316374349641	4.269874349641
0	1836657	69.317443496042	4.269193496042
0	1836689	69.318161871489	4.269411871489
0	1836714	69.318880246936	4.269880246936
0	1836748	69.319598622383	4.270348622383
0	1836779	69.32031699783	4.27081699783
0	1836964	69.325907922479	4.278657922479
0	1836986	69.32640495802	4.27890495802
0	1837015	69.326901993561	4.279151993561
0	1837035	69.327399029102	4.279399029102
0	1890473	71.063247035541	0.010497035540993
0	1890516	71.064241106623	0.011241106623004
0	1891188	71.086189080194	0.031689080193999
0	1891410	71.093651463645	0.042151463644998
0	1906204	71.581497035541	0.010497035541007
0	1906228	71.581994071082	0.010744071082001
0	1906381	71.585997035541	0.010497035540993
0	1906410	71.586494071082	0.010744071082001
0	1906565	71.590497035541	0.010497035540993
0	1906590	71.590994071082	0.010744071082001
0	1906753	71.594997035541	0.010497035540993
0	1906779	71.595494071082	0.010744071082001
0	1906952	71.599497035541	0.010497035540993
0	1906980	71.599994071082	0.010744071082001
0	1907147	71.603997035541	0.010497035541007
0	1907170	71.604439080194	0.031689080193999
0	1907183	71.604494071082	0.010744071082001
0	1907353	71.608497035541	0.010497035540993
0	1907378	71.608939080194	0.031689080194013
0	1907387	71.608994071082	0.010744071082001
0	1907526	71.611901463645	0.042151463644998
0	1907567	71.612997035541	0.010497035541007
0	1907599	71.613439080194	0.031689080193999
0	1907608	71.613494071082	0.010744071082001
0	1907734	71.616401463645	0.042151463645013
0	1907801	71.617939080194	0.031689080193999
0	1907808	71.617976091978	0.010976091977994
0	1907835	71.618473127519	0.011223127519003
0	1907975	71.620901463645	0.042151463644998
0	1908039	71.622247035541	0.010497035540993
0	1908056	71.622439080194	0.031689080193999
0	1908071	71.622744071082	0.010744071082001
0	1908183	71.625401463645	0.042151463645013
0	1908241	71.626747035541	0.010497035541007
0	1908260	71.626939080194	0.031689080193999
0	1908276	71.627244071082	0.010744071082001
0	1908433	71.630355351158	0.042605351158002
0	1908470	71.631247035541	0.010497035540993
0	1908480	71.631439080194	0.031689080193999
0	1908502	71.631744071082	0.010744071082001
0	1908612	71.634401463645	0.042151463645013
0	1908670	71.635747035541	0.010497035541007
0	1908684	71.635939080194	0.031689080193999
0	1908705	71.636244071082	0.010744071082001
0	1908814	71.638901463645	0.042151463644998
0	1908879	71.640247035541	0.010497035540993
0	1908895	71.640439080194	0.031689080193999
0	1908912	71.640744071082	0.010744071082001
0	1909022	71.643401463645	0.042151463644998
0	1909083	71.644747035541	0.010497035541007
0	1909108	71.645189080194	0.031689080193999
0	1909118	71.645244071082	0.010744071082001
0	1909226	71.647901463645	0.042151463644998
0	1909286	71.649247035541	0.010497035540993
0	1909311	71.649689080194	0.031689080193999
0	1909320	71.649744071082	0.010744071082001
0	1909446	71.652651463645	0.042151463644998
0	1909493	71.653747035541	0.010497035541007
0	1909515	71.654189080194	0.031689080193999
0	1909524	71.654244071082	0.010744071082001
0	1909641	71.657151463645	0.042151463644998
0	1909689	71.658247035541	0.010497035540993
0	1909716	71.658689080194	0.031689080193999
0	1909728	71.658744071082	0.010744071082001
0	1909850	71.661651463645	0.042151463644998
0	1909899	71.662747035541	0.010497035541007
0	1909927	71.663189080194	0.031689080193999
0	1909937	71.663244071082	0.010744071082001
0	1910050	71.666151463645	0.042151463644998
0	1910103	71.667247035541	0.010497035540993
0	1910125	71.667689080194	0.031689080193999
0	1910134	71.667744071082	0.010744071082001
0	1910262	71.670651463645	0.042151463644998
0	1910308	71.671747035541	0.010497035541007
0	1910334	71.672189080194	0.031689080193999
0	1910343	71.672244071082	0.010744071082001
0	1910462	71.675151463645	0.042151463644998
0	1910507	71.676247035541	0.010497035540993
0	1910532	71.676689080194	0.031689080193999
0	1910548	71.676744071082	0.010744071082001
0	1910669	71.679651463645	0.042151463644998
0	1910720	71.680747035541	0.010497035541007
0	1910746	71.681189080194	0.031689080193999
0	1910756	71.681244071082	0.010744071082001
0	1910871	71.684151463645	0.042151463644998
0	1910914	71.685247035541	0.010497035540993
0	1910942	71.685689080194	0.031689080193999
0	1910951	71.685744071082	0.010744071082001
0	1911074	71.688651463645	0.042151463644998
0	1911120	71.689747035541	0.010497035541007
0	1911144	71.690189080194	0.031689080193999
0	1911153	71.690244071082	0.010744071081987
0	1911284	71.693151463645	0.042151463644998
0	1911332	71.694247035541	0.010497035540993
0	1911354	71.694689080194	0.031689080193999
0	1911364	71.694744071082	0.010744071082001
0	1911484	71.697651463645	0.042151463644998
0	1911535	71.698747035541	0.010497035541007
0	1911559	71.699189080194	0.031689080193999
0	1911568	71.699244071082	0.010744071081987
0	1911705	71.702151463645	0.042151463644998
0	1911745	71.703247035541	0.010497035540993
0	1911776	71.703689080194	0.031689080193999
0	1911785	71.703744071082	0.010744071082001
0	1911909	71.706651463645	0.042151463644998
0	1911951	71.707747035541	0.010497035541007
0	1911979	71.708189080194	0.031689080193999
0	1911991	71.708244071082	0.010744071081987
0	1912147	71.711151463645	0.042151463644998
0	1912209	71.712497035541	0.010497035541007
0	1912231	71.712689080194	0.031689080193999
0	1912245	71.712994071082	0.010744071082001
0	1912361	71.715651463645	0.042151463644998
0	1912422	71.716997035541	0.010497035540993
0	1912443	71.717189080194	0.031689080193999
0	1912460	71.717494071082	0.010744071082001
0	1912575	71.720151463645	0.042151463644998
0	1912653	71.721497035541	0.010497035540993
0	1912663	71.721689080194	0.031689080193999
0	1912684	71.721994071082	0.010744071082001
0	1912793	71.724651463645	0.042151463644998
0	1912855	71.725997035541	0.010497035541007
0	1912865	71.726189080194	0.031689080193999
0	1912886	71.726494071082	0.010744071082001
0	1913003	71.729151463645	0.042151463644998
0	1913069	71.730497035541	0.010497035540993
0	1913086	71.730689080194	0.031689080193999
0	1913106	71.730994071082	0.010744071082001
0	1913216	71.733651463645	0.042151463644998
0	1913286	71.734997035541	0.010497035541007
0	1913312	71.735439080194	0.031689080193999
0	1913322	71.735494071082	0.010744071082001
0	1913433	71.738151463645	0.042151463644998
0	1913496	71.739497035541	0.010497035540993
0	1913520	71.739939080194	0.031689080193999
0	1913529	71.739994071082	0.010744071082001
0	1913656	71.742901463645	0.042151463644998
0	1913707	71.743997035541	0.010497035541007
0	1913732	71.744439080194	0.031689080193999
0	1913741	71.744494071082	0.010744071082001
0	1913863	71.747401463645	0.042151463645013
0	1913915	71.748497035541	0.010497035540993
0	1913935	71.748939080194	0.031689080193999
0	1913948	71.748994071082	0.010744071082001
0	1914067	71.751901463645	0.042151463644998
0	1914121	71.752997035541	0.010497035541007
0	1914147	71.753439080194	0.031689080193999
0	1914157	71.753494071082	0.010744071082001
0	1914276	71.756401463645	0.042151463645013
0	1914322	71.757497035541	0.010497035540993
0	1914345	71.757939080194	0.031689080193999
0	1914357	71.757994071082	0.010744071082001
0	1914481	71.760901463645	0.042151463644998
0	1914523	71.761997035541	0.010497035541007
0	1914546	71.762439080194	0.031689080193999
0	1914555	71.762494071082	0.010744071082001
0	1914683	71.765401463645	0.042151463644998
0	1914726	71.766497035541	0.010497035540993
0	1914752	71.766939080194	0.031689080193999
0	1914761	71.766994071082	0.010744071082001
0	1914896	71.770100325857	0.042350325857001
0	1914933	71.770997035541	0.010497035541007
0	1914957	71.771439080194	0.031689080193999
0	1914966	71.771494071082	0.010744071082001
0	1915088	71.774401463645	0.042151463644998
0	1915133	71.775497035541	0.010497035540993
0	1915155	71.775939080194	0.031689080193999
0	1915164	71.775994071082	0.010744071082001
0	1915288	71.778901463645	0.042151463644998
0	1915332	71.779997035541	0.010497035541007
0	1915357	71.780439080194	0.031689080193999
0	1915366	71.780494071082	0.010744071082001
0	1915489	71.783401463645	0.042151463644998
0	1915539	71.784497035541	0.010497035540993
0	1915561	71.784939080194	0.031689080193999
0	1915571	71.784994071082	0.010744071082001
0	1915685	71.787901463645	0.042151463644998
0	1915737	71.788997035541	0.010497035541007
0	1915762	71.789439080194	0.031689080193999
0	1915771	71.789494071082	0.010744071082001
0	1915901	71.792401463645	0.042151463644998
0	1915943	71.793497035541	0.010497035540993
0	1915970	71.793939080194	0.031689080193999
0	1915979	71.793994071082	0.010744071082001
0	1916098	71.796901463645	0.042151463644998
0	1916138	71.797997035541	0.010497035541007
0	1916168	71.798439080194	0.031689080193999
0	1916180	71.798494071082	0.010744071082001
0	1916334	71.801401463645	0.042151463644998
0	1916398	71.802747035541	0.010497035541007
0	1916416	71.802939080194	0.031689080193999
0	1916432	71.803244071082	0.010744071082001
0	1916534	71.805901463645	0.042151463644998
0	1916601	71.807247035541	0.010497035540993
0	1916616	71.807439080194	0.031689080193999
0	1916632	71.807744071082	0.010744071082001
0	1916742	71.810401463645	0.042151463644998
0	1916824	71.811747035541	0.010497035541007
0	1916834	71.811939080194	0.031689080193999
0	1916856	71.812244071082	0.010744071081987
0	1916959	71.814901463645	0.042151463644998
0	1917024	71.816247035541	0.010497035540993
0	1917035	71.816439080194	0.031689080193999
0	1917060	71.816744071082	0.010744071082001
0	1917132	71.819401463645	0.042151463644998
0	1917171	71.820747035541	0.010497035541007
0	1917182	71.820939080194	0.031689080193999
0	1917195	71.821244071082	0.010744071081987
0	1917262	71.823901463645	0.042151463644998
0	1917295	71.825247035541	0.010497035540993
0	1917313	71.825689080194	0.031689080193999
0	1917323	71.825744071082	0.010744071082001
0	1917383	71.828401463645	0.042151463644998
0	1917417	71.830189080194	0.031689080193999
0	1917478	71.833151463645	0.042151463644998
0	1917509	71.834689080194	0.031689080193999
0	1917571	71.837651463645	0.042151463644998
0	1917596	71.839189080194	0.031689080193999
0	1917663	71.842382209322	0.042382209322
0	1917687	71.843689080194	0.031689080193999
0	1917739	71.846651463645	0.042151463644998
0	1917770	71.848189080194	0.031689080193999
0	1917824	71.851151463645	0.042151463644998
0	1917897	71.855651463645	0.042151463644998
0	1979195	75.817205372686	4.765955372686
0	1979211	75.817923748133	4.766173748133
0	1979223	75.81864212358	4.76664212358
0	1979245	75.819360499027	4.767110499027
0	1979271	75.820078874474	4.767578874474
0	1979294	75.821060719808	4.766810719808
0	1979311	75.821779095255	4.767029095255
0	1979326	75.822497470702	4.767497470702
0	1979344	75.823215846149	4.767965846149
0	1979372	75.824652597043	4.769152597043
0	1979449	75.829525146245	4.776275146245
0	1979466	75.830022181786	4.776522181786
0	1979484	75.830519217327	4.776769217327
0	1979499	75.831016252868	4.777016252868
0	1989189	76.421674294138	4.852174294138
0	1989211	76.422392669585	4.852392669585
0	1989230	76.423111045032	4.852861045032
0	1989264	76.423829420479	4.853329420479
0	1989292	76.424547795926	4.853797795926
0	1989312	76.425266171373	4.852766171373
0	1989357	76.426702922267	4.853702922267
0	1989377	76.427421297714	4.854171297714
0	1989408	76.428139673161	4.854639673161
0	1989426	76.428858048608	4.855108048608
0	1989452	76.429576424055	4.855576424055
0	1989487	76.430294799502	4.855794799502
0	1989504	76.431013174949	4.856263174949
0	1989535	76.431731550396	4.856731550396
0	1989567	76.432449925843	4.857199925843
0	1989584	76.433188391183	4.861688391183
0	1989598	76.433685426724	4.861935426724
0	1989613	76.433886676737	4.856886676737
0	1989630	76.434182462265	4.862182462265
0	1989643	76.434605052184	4.857105052184
0	1989652	76.434679497806	4.862429497806
0	1989671	76.435323427631	4.857573427631
0	1989707	76.436041803078	4.858041803078
0	1989731	76.436760178525	4.858510178525
0	1989757	76.437478553972	4.858978553972
0	1989793	76.438196929419	4.859196929419
0	1989808	76.438915304866	4.859665304866
0	1989820	76.439321399477	4.863321399477
0	1989833	76.439633680313	4.860133680313
0	1989841	76.439818435018	4.863568435018
0	1989867	76.440315470559	4.863815470559
0	1989874	76.44035205576	4.86060205576
0	1989890	76.4408125061	4.8640625061
0	1989897	76.441070431207	4.859570431207
0	1989930	76.441788806654	4.859788806654
0	1989969	76.442507182101	4.860257182101
0	1989992	76.443225557548	4.860725557548
0	1990025	76.443943932995	4.861193932995
0	1990047	76.444662308442	4.861662308442
0	1990068	76.445380683889	4.861880683889
0	1990076	76.445454407771	4.864954407771
0	1990089	76.445951443312	4.865201443312
0	1990106	76.446099059336	4.862349059336
0	1990123	76.446448478853	4.865448478853
0	1990131	76.446817434783	4.862817434783
0	1990145	76.446945514394	4.865695514394
0	1990162	76.44753581023	4.86328581023
0	1990196	76.448254185677	4.862254185677
0	1990220	76.448972561124	4.862472561124
0	1990248	76.449690936571	4.862940936571
0	1990289	76.450409312018	4.863409312018
0	1990307	76.451127687465	4.863877687465
0	1990326	76.451587416065	4.866587416065
0	1990340	76.451846062912	4.864346062912
0	1990348	76.452084451606	4.866834451606
0	1990372	76.452564438359	4.864564438359
0	1990388	76.453078522688	4.867578522688
0	1990395	76.453282813806	4.865032813806
0	1990413	76.453575558229	4.867825558229
0	1990432	76.454001189253	4.865501189253
0	1990459	76.4547195647	4.8659695647
0	1990487	76.455437940147	4.864937940147
0	1990519	76.456156315594	4.865156315594
0	1990543	76.456874691041	4.865624691041
0	1990562	76.457593066488	4.866093066488
0	1990570	76.457720424359	4.868220424359
0	1990583	76.4582174599	4.8684674599
0	1990599	76.458311441935	4.866561441935
0	1990617	76.458714495441	4.868714495441
0	1990625	76.459029817382	4.867029817382
0	1990637	76.459211530982	4.868961530982
0	1990656	76.459748192829	4.867248192829
0	1990688	76.460466568276	4.867716568276
0	1990712	76.461184943723	4.868184943723
0	1990744	76.46190331917	4.86865331917
0	1990767	76.462621694617	4.867621694617
0	1990796	76.463340070064	4.867840070064
0	1990808	76.463853432653	4.869853432653
0	1990823	76.464058445511	4.868308445511
0	1990831	76.464350468194	4.870100468194
0	1990848	76.464776820958	4.868776820958
0	1990875	76.464847503735	4.870347503735
0	1990888	76.465344539276	4.870594539276
0	1990897	76.465495196405	4.869245196405
0	1990927	76.466213571852	4.869713571852
0	1990949	76.466931947299	4.869931947299
0	1990979	76.467650322746	4.870400322746
0	1991008	76.468368698193	4.870868698193
0	1991031	76.46908707364	4.87133707364
0	1991048	76.469805449087	4.870305449087
0	1991056	76.469986440947	4.871486440947
0	1991069	76.470483476488	4.871733476488
0	1991085	76.470523824534	4.870523824534
0	1991105	76.470980512029	4.871980512029
0	1991115	76.471242199981	4.870992199981
0	1991127	76.47147754757	4.87222754757
0	1991146	76.471960575428	4.871460575428
0	1991174	76.472678950875	4.871928950875
0	1991209	76.473397326322	4.872397326322
0	1991237	76.474115701769	4.872615701769
0	1991259	76.474834077216	4.873084077216
0	1991292	76.475552452663	4.873552452663
0	1991305	76.476119449241	4.873119449241
0	1991317	76.47627082811	4.87402082811
0	1991326	76.476616484782	4.873366484782
0	1991341	76.476989203557	4.872989203557
0	1991361	76.477113520323	4.873613520323
0	1991373	76.477610555864	4.873860555864
0	1991382	76.477707579004	4.873207579004
0	1991413	76.478425954451	4.873675954451
0	1991438	76.479144329898	4.874144329898
0	1991472	76.479862705345	4.874612705345
0	1991492	76.480581080792	4.875081080792
0	1991524	76.481299456239	4.875299456239
0	1991541	76.482017831686	4.875767831686
0	1991549	76.482252457535	4.874752457535
0	1991562	76.482736207133	4.876236207133
0	1991569	76.482749493076	4.874999493076
0	1991596	76.483246528617	4.875246528617
0	1991606	76.48345458258	4.87670458258
0	1991620	76.483743564158	4.875493564158
0	1991655	76.484891333474	4.876391333474
0	1991693	76.485609708921	4.876609708921
0	1991725	76.486328084368	4.877078084368
0	1991750	76.487046459815	4.877546459815
0	1991779	76.487764835262	4.878014835262
0	1991791	76.488385465829	4.876135465829
0	1991803	76.488483210709	4.878233210709
0	1991812	76.48888250137	4.87638250137
0	1991827	76.489201586156	4.878451586156
0	1991846	76.489379536911	4.876629536911
0	1991862	76.489876572452	4.876876572452
0	1991869	76.489919961603	4.878919961603
0	1991890	76.49063833705	4.87938833705
0	1991923	76.491356712497	4.879856712497
0	1991952	76.492075087944	4.878825087944
0	1991975	76.492793463391	4.879043463391
0	1992013	76.493511838838	4.879511838838
0	1992031	76.494230214285	4.879980214285
0	1992040	76.494518474123	4.877768474123
0	1992057	76.494948589732	4.880448589732
0	1992065	76.495015509664	4.878015509664
0	1992091	76.495512545205	4.878262545205
0	1992099	76.495666965179	4.880916965179
0	1992111	76.496009580746	4.878509580746
0	1992127	76.496385340626	4.881135340626
0	1992148	76.497103716073	4.881603716073
0	1992184	76.49782209152	4.88207209152
0	1992202	76.498540466967	4.882540466967
0	1992257	76.499977217861	4.882227217861
0	1992275	76.500695593308	4.882445593308
0	1992282	76.500726838044	4.879476838044
0	1992305	76.501223873585	4.879723873585
0	1992315	76.501413968755	4.882913968755
0	1992333	76.501720909126	4.879970909126
0	1992345	76.502132344202	4.883382344202
0	1992354	76.502217944667	4.880217944667
0	1992375	76.502850719649	4.883850719649
0	1992409	76.503569095096	4.884319095096
0	1992437	76.504287470543	4.884537470543
0	1992459	76.50500584599	4.88500584599
0	1992493	76.505724221437	4.885474221437
0	1992511	76.506442596884	4.885942596884
0	1992520	76.506784490711	4.881034490711
0	1992533	76.507160972331	4.884910972331
0	1992541	76.507281526252	4.881281526252
0	1992565	76.507778561793	4.881528561793
0	1992575	76.507879347778	4.885129347778
0	1992587	76.508275597334	4.881775597334
0	1992600	76.508597723225	4.885597723225
0	1992628	76.509316098672	4.886066098672
0	1992665	76.510034474119	4.886534474119
0	1992687	76.510752849566	4.887002849566
0	1992720	76.511471225013	4.887221225013
0	1992748	76.51218960046	4.88768960046
0	1992763	76.512907975907	4.888157975907
0	1992770	76.512917499005	4.882667499005
0	1992784	76.513414534546	4.882914534546
0	1992799	76.513626351354	4.888626351354
0	1992816	76.513911570087	4.883161570087
0	1992827	76.514344726801	4.887594726801
0	1992836	76.514408605628	4.883408605628
0	1992855	76.515063102248	4.887813102248
0	1992891	76.515781477695	4.888281477695
0	1992915	76.516499853142	4.888749853142
0	1992943	76.517218228589	4.889218228589
0	1992979	76.517936604036	4.889686604036
0	1992992	76.518654979483	4.889904979483
0	1993004	76.519050507299	4.884300507299
0	1993019	76.51937335493	4.89037335493
0	1993027	76.51954754284	4.88454754284
0	1993054	76.520091730377	4.890841730377
0	1993067	76.520541613922	4.885291613922
0	1993088	76.521038649463	4.885538649463
0	1993107	76.521528481271	4.892028481271
0	1993143	76.522246856718	4.890996856718
0	1993167	76.522965232165	4.891215232165
0	1993201	76.523683607612	4.891683607612
0	1993228	76.524401983059	4.892151983059
0	1993246	76.525120358506	4.892620358506
0	1993254	76.525183515593	4.885933515593
0	1993269	76.525680551134	4.886180551134
0	1993284	76.525838733953	4.893088733953
0	1993301	76.526177586675	4.886427586675
0	1993309	76.5265571094	4.8933071094
0	1993321	76.526674622216	4.886674622216
0	1993338	76.527275484847	4.893775484847
0	1993374	76.527993860294	4.894243860294
0	1993398	76.528712235741	4.894712235741
0	1993424	76.529430611188	4.893680611188
0	1993459	76.530148986635	4.893898986635
0	1993475	76.530867362082	4.894367362082
0	1993487	76.531316523887	4.887566523887
0	1993504	76.531813559428	4.887813559428
0	1993530	76.532304112976	4.895554112976
0	1993537	76.532310594969	4.888060594969
0	1993550	76.53280763051	4.88830763051
0	1993559	76.533022488423	4.896022488423
0	1993589	76.53374086387	4.89649086387
0	1993616	76.534459239317	4.896709239317
0	1993648	76.535177614764	4.897177614764
0	1993679	76.535895990211	4.897645990211
0	1993703	76.536614365658	4.898114365658
0	1993722	76.537332741105	4.897082741105
0	1993730	76.537449532181	4.889199532181
0	1993743	76.537946567722	4.889446567722
0	1993759	76.538051116552	4.897301116552
0	1993777	76.538443603263	4.889693603263
0	1993787	76.538769491999	4.897769491999
0	1993799	76.538940638804	4.889940638804
0	1993818	76.539487867446	4.898237867446
0	1993854	76.540206242893	4.898706242893
0	1993878	76.54092461834	4.89917461834
0	1993904	76.541642993787	4.899392993787
0	1993937	76.542361369234	4.899861369234
0	1993953	76.543079744681	4.900329744681
0	1993965	76.543582540475	4.890832540475
0	1993978	76.543798120128	4.900798120128
0	1994010	76.544576611557	4.891576611557
0	1994022	76.545073647098	4.891823647098
0	1994029	76.545234871022	4.900484871022
0	1994049	76.545570682639	4.892070682639
0	1994070	76.545953246469	4.900703246469
0	1994097	76.546671621916	4.901171621916
0	1994128	76.547389997363	4.901639997363
0	1994159	76.54810837281	4.90210837281
0	1994182	76.548826748257	4.902576748257
0	1994201	76.549545123704	4.902795123704
0	1994209	76.549715548769	4.892465548769
0	1994222	76.55021258431	4.89271258431
0	1994236	76.550263499151	4.903263499151
0	1994256	76.550709619851	4.892959619851
0	1994264	76.550981874598	4.903731874598
0	1994278	76.551206655392	4.893206655392
0	1994295	76.551700250045	4.904200250045
0	1994320	76.552418625492	4.903168625492
0	1994357	76.553137000939	4.903387000939
0	1994387	76.553855376386	4.903855376386
0	1994409	76.554573751833	4.904323751833
0	1994440	76.55529212728	4.90479212728
0	1994452	76.555848557063	4.894098557063
0	1994464	76.556010502727	4.905260502727
0	1994473	76.556345592604	4.894345592604
0	1994488	76.556728878174	4.905478878174
0	1994505	76.556842628145	4.894592628145
0	1994517	76.557339663686	4.894839663686
0	1994524	76.557447253621	4.905947253621
0	1994553	76.558165629068	4.906415629068
0	1994576	76.558884004515	4.906884004515
0	1994605	76.559602379962	4.905852379962
0	1994626	76.560320755409	4.906070755409
0	1994675	76.561757506303	4.907257506303
0	1994683	76.561981565357	4.895731565357
0	1994698	76.56247588175	4.90772588175
0	1994705	76.562478600898	4.895978600898
0	1994730	76.562975636439	4.896225636439
0	1994740	76.563194257197	4.908194257197
0	1994752	76.56347267198	4.89647267198
0	1994769	76.563912632644	4.908662632644
0	1994792	76.564631008091	4.908881008091
0	1994825	76.565349383538	4.909349383538
0	1994854	76.566067758985	4.909817758985
0	1994874	76.566786134432	4.910286134432
0	1994900	76.567504509879	4.909254509879
0	1994913	76.568114573651	4.897364573651
0	1994927	76.568222885326	4.909472885326
0	1994938	76.568611609192	4.897611609192
0	1994955	76.568941260773	4.909941260773
0	1994972	76.569108644733	4.897858644733
0	1994984	76.569605680274	4.898105680274
0	1994993	76.56965963622	4.91040963622
0	1995020	76.570378011667	4.910878011667
0	1995054	76.571096387114	4.911346387114
0	1995086	76.571814762561	4.911564762561
0	1995105	76.572533138008	4.912033138008
0	1995139	76.573251513455	4.912501513455
0	1995155	76.573969888902	4.912969888902
0	1995164	76.574247581945	4.898997581945
0	1995179	76.574688264349	4.911938264349
0	1995186	76.574744617486	4.899244617486
0	1995213	76.575241653027	4.899491653027
0	1995223	76.575406639796	4.912156639796
0	1995235	76.575738688568	4.899738688568
0	1995255	76.576125015243	4.912625015243
0	1995282	76.57684339069	4.91309339069
0	1995321	76.577561766137	4.913561766137
0	1995340	76.578280141584	4.914030141584
0	1995371	76.578998517031	4.914248517031
0	1995398	76.579716892478	4.914716892478
0	1995410	76.580380590239	4.900630590239
0	1995417	76.580435267925	4.915185267925
0	1995431	76.58087762578	4.90087762578
0	1995448	76.581153643372	4.915653643372
0	1995469	76.581374661321	4.901124661321
0	1995482	76.581871696862	4.901371696862
0	1995489	76.581872018819	4.914622018819
0	1995512	76.582590394266	4.914840394266
0	1995545	76.583308769713	4.915308769713
0	1995577	76.58402714516	4.91577714516
0	1995599	76.584745520607	4.916245520607
0	1995633	76.585463896054	4.916713896054
0	1995649	76.586182271501	4.916932271501
0	1995658	76.586513598533	4.902263598533
0	1995675	76.587010634074	4.902510634074
0	1995710	76.587619022395	4.918119022395
0	1995722	76.588004705156	4.903254705156
0	1995735	76.588337397842	4.918587397842
0	1995749	76.588501740697	4.903501740697
0	1995768	76.589055773289	4.919055773289
0	1995804	76.589774148736	4.918024148736
0	1995822	76.590492524183	4.918242524183
0	1995854	76.59121089963	4.91871089963
0	1995885	76.591929275077	4.919179275077
0	1995898	76.592646606827	4.903896606827
0	1995907	76.592647650524	4.919647650524
0	1995923	76.593143642368	4.904143642368
0	1995938	76.593366025971	4.920116025971
0	1995957	76.593640677909	4.904390677909
0	1995970	76.594084401418	4.920334401418
0	1995978	76.59413771345	4.90463771345
0	1995996	76.594802776865	4.920802776865
0	1996030	76.595521152312	4.921271152312
0	1996052	76.596239527759	4.921739527759
0	1996110	76.597676278653	4.921426278653
0	1996131	76.598779615121	4.905529615121
0	1996146	76.599113029547	4.922363029547
0	1996154	76.599276650662	4.905776650662
0	1996178	76.599773686203	4.906023686203
0	1996188	76.599831404994	4.922831404994
0	1996200	76.600270721744	4.906270721744
0	1996215	76.600549780441	4.923299780441
0	1996245	76.601268155888	4.923768155888
0	1996279	76.601986531335	4.924236531335
0	1996299	76.602704906782	4.924454906782
0	1996331	76.603423282229	4.924923282229
0	1996357	76.604141657676	4.925391657676
0	1996375	76.604860033123	4.925860033123
0	1996382	76.604912623415	4.907162623415
0	1996399	76.605409658956	4.907409658956
0	1996414	76.60557840857	4.92482840857
0	1996431	76.605906694497	4.907656694497
0	1996441	76.606296784017	4.925046784017
0	1996453	76.606403730038	4.907903730038
0	1996472	76.607015159464	4.925515159464
0	1996510	76.607733534911	4.925983534911
0	1996534	76.608451910358	4.926451910358
0	1996560	76.609170285805	4.926920285805
0	1996595	76.609888661252	4.927138661252
0	1996609	76.610607036699	4.927607036699
0	1996621	76.611045631709	4.908545631709
0	1996634	76.611325412146	4.928075412146
0	1996642	76.61154266725	4.90879266725
0	1996668	76.612039702791	4.909039702791
0	1996675	76.612043787593	4.928543787593
0	1996688	76.612536738332	4.909286738332
0	1996695	76.61276216304	4.92751216304
0	1996731	76.613480538487	4.927730538487
0	1996758	76.614198913934	4.928198913934
0	1996820	76.615635664828	4.929385664828
0	1996844	76.616354040275	4.929854040275
0	1996861	76.617072415722	4.930322415722
0	1996869	76.617178640003	4.910178640003
0	1996882	76.617675675544	4.910425675544
0	1996897	76.617790791169	4.930540791169
0	1996914	76.618172711085	4.910672711085
0	1996922	76.618509166616	4.931009166616
0	1996934	76.618669746626	4.910919746626
0	1996951	76.619227542063	4.931477542063
0	1996984	76.61994591751	4.93194591751
0	1997007	76.620664292957	4.930914292957
0	1997037	76.621382668404	4.931132668404
0	1997074	76.622101043851	4.931601043851
0	1997100	76.623311648297	4.911811648297
0	1997115	76.623537794745	4.932787794745
0	1997123	76.623808683838	4.912058683838
0	1997140	76.624256170192	4.933256170192
0	1997158	76.624305719379	4.912305719379
0	1997171	76.62480275492	4.91255275492
0	1997178	76.624974545639	4.933724545639
0	1997211	76.625692921086	4.933942921086
0	1997236	76.626411296533	4.934411296533
0	1997263	76.62712967198	4.93487967198
0	1997292	76.627848047427	4.935348047427
0	1997315	76.628566422874	4.934316422874
0	1997337	76.629284798321	4.934534798321
0	1997345	76.629444656591	4.913444656591
0	1997360	76.629941692132	4.913691692132
0	1997376	76.630003173768	4.935003173768
0	1997394	76.630438727673	4.913938727673
0	1997404	76.630721549215	4.935471549215
0	1997418	76.630935763214	4.914185763214
0	1997437	76.631439924662	4.935939924662
0	1997460	76.632158300109	4.936408300109
0	1997495	76.632876675556	4.936626675556
0	1997521	76.633595051003	4.937095051003
0	1997543	76.63431342645	4.93756342645
0	1997570	76.635031801897	4.938031801897
0	1997582	76.635577664885	4.915077664885
0	1997601	76.636074700426	4.915324700426
0	1997618	76.636468552791	4.937718552791
0	1997635	76.636571735967	4.915571735967
0	1997647	76.637068771508	4.915818771508
0	1997656	76.637186928238	4.937936928238
0	1997687	76.637905303685	4.938405303685
0	1997714	76.638623679132	4.938873679132
0	1997746	76.639342054579	4.939342054579
0	1997775	76.640060430026	4.939560430026
0	1997798	76.640778805473	4.939778805473
0	1997815	76.64149718092	4.94024718092
0	1997823	76.641710673179	4.916710673179
0	1997836	76.64220770872	4.91695770872
0	1997843	76.642215556367	4.940715556367
0	1997868	76.642704744261	4.917204744261
0	1997876	76.642933931814	4.941183931814
0	1997888	76.643201779802	4.917451779802
0	1997907	76.643652307261	4.940152307261
0	1997932	76.644370682708	4.940370682708
0	1997967	76.645089058155	4.940839058155
0	1997998	76.645807433602	4.941307433602
0	1998021	76.646525809049	4.941775809049
0	1998056	76.647843681473	4.918343681473
0	1998068	76.647962559943	4.942962559943
0	1998079	76.648340717014	4.918590717014
0	1998096	76.64868093539	4.94318093539
0	1998115	76.648837752555	4.918837752555
0	1998127	76.649334788096	4.919084788096
0	1998134	76.649399310837	4.943649310837
0	1998156	76.650117686284	4.944117686284
0	1998188	76.650836061731	4.944586061731
0	1998217	76.651554437178	4.943554437178
0	1998240	76.652272812625	4.943772812625
0	1998278	76.652991188072	4.944241188072
0	1998298	76.653709563519	4.944709563519
0	1998306	76.653976689767	4.919976689767
0	1998321	76.654427938966	4.945177938966
0	1998328	76.654473725308	4.920223725308
0	1998353	76.654970760849	4.920470760849
0	1998361	76.655146314413	4.945646314413
0	1998373	76.65546779639	4.92071779639
0	1998389	76.65586468986	4.94586468986
0	1998410	76.656583065307	4.946333065307
0	1998448	76.657301440754	4.946801440754
0	1998475	76.658019816201	4.947269816201
0	1998519	76.659456567095	4.946956567095
0	1998531	76.660109698061	4.921609698061
0	1998540	76.660174942542	4.947174942542
0	1998554	76.660606733602	4.921856733602
0	1998571	76.660893317989	4.947643317989
0	1998590	76.661103769143	4.922103769143
0	1998602	76.661600804684	4.922350804684
0	1998611	76.661611693436	4.948111693436
0	1998636	76.662330068883	4.948580068883
0	1998669	76.66304844433	4.94904844433
0	1998700	76.663766819777	4.949266819777
0	1998721	76.664485195224	4.949735195224
0	1998755	76.665203570671	4.950203570671
0	1998771	76.665921946118	4.950671946118
0	1998780	76.666242706355	4.923242706355
0	1998795	76.666640321565	4.949640321565
0	1998803	76.666739741896	4.923489741896
0	1998830	76.667236777437	4.923736777437
0	1998840	76.667358697012	4.949858697012
0	1998853	76.667733812978	4.923983812978
0	1998866	76.668077072459	4.950327072459
0	1998896	76.668795447906	4.950795447906
0	1998934	76.669513823353	4.951263823353
0	1998952	76.6702321988	4.9517321988
0	1998984	76.670950574247	4.951950574247
0	1999023	76.672375714649	4.924875714649
0	1999030	76.672387325141	4.953137325141
0	1999044	76.67287275019	4.92512275019
0	1999061	76.673105700588	4.953605700588
0	1999078	76.673369785731	4.925369785731
0	1999089	76.673824076035	4.954074076035
0	1999097	76.673866821272	4.925616821272
0	1999118	76.674542451482	4.953042451482
0	1999154	76.675260826929	4.953260826929
0	1999184	76.675979202376	4.953729202376
0	1999206	76.676697577823	4.954197577823
0	1999244	76.67741595327	4.95466595327
0	1999263	76.678134328717	4.955134328717
0	1999278	76.678508722943	4.926508722943
0	1999291	76.678852704164	4.955352704164
0	1999299	76.679005758484	4.926755758484
0	1999325	76.679502794025	4.927002794025
0	1999333	76.679571079611	4.955821079611
0	1999345	76.679999829566	4.927249829566
0	1999356	76.680289455058	4.956289455058
0	1999384	76.681007830505	4.956757830505
0	1999418	76.681726205952	4.955726205952
0	1999464	76.683162956846	4.956662956846
0	1999492	76.683881332293	4.957131332293
0	1999507	76.68459970774	4.95759970774
0	1999514	76.684641731237	4.928141731237
0	1999528	76.685138766778	4.928388766778
0	1999545	76.685318083187	4.958068083187
0	1999564	76.685635802319	4.928635802319
0	1999572	76.686036458634	4.958536458634
0	1999584	76.68613283786	4.92888283786
0	1999601	76.686754834081	4.958754834081
0	1999639	76.687473209528	4.959223209528
0	1999664	76.688191584975	4.959691584975
0	1999690	76.688909960422	4.960159960422
0	1999723	76.689628335869	4.959128335869
0	1999741	76.690346711316	4.959346711316
0	1999753	76.690774739531	4.929774739531
0	1999768	76.691065086763	4.959815086763
0	1999776	76.691271775072	4.930021775072
0	1999806	76.691768810613	4.930268810613
0	1999815	76.69178346221	4.96028346221
0	1999828	76.692265846154	4.930515846154
0	1999837	76.692501837657	4.960751837657
0	1999867	76.693220213104	4.961220213104
0	1999915	76.694656963998	4.962156963998
0	1999949	76.695375339445	4.962625339445
0	1999971	76.696093714892	4.963093714892
0	1999992	76.696907747825	4.931407747825
0	2000005	76.697404783366	4.931654783366
0	2000020	76.697530465786	4.964280465786
0	2000037	76.697901818907	4.931901818907
0	2000045	76.698248841233	4.963248841233
0	2000057	76.698398854448	4.932148854448
0	2000076	76.69896721668	4.96346721668
0	2000113	76.699685592127	4.963935592127
0	2000163	76.701122343021	4.965122343021
0	2000204	76.701840718468	4.965590718468
0	2000219	76.702559093915	4.966059093915
0	2000232	76.703040756119	4.933040756119
0	2000247	76.703277469362	4.966277469362
0	2000255	76.70353779166	4.93328779166
0	2000272	76.703995844809	4.966745844809
0	2000288	76.704034827201	4.933534827201
0	2000301	76.704531862742	4.933781862742
0	2000308	76.704714220256	4.967214220256
0	2000338	76.705432595703	4.967682595703
0	2000366	76.70615097115	4.96665097115
0	2000396	76.706869346597	4.966869346597
0	2000427	76.707587722044	4.967337722044
0	2000452	76.708306097491	4.967806097491
0	2000471	76.709024472938	4.968274472938
0	2000479	76.709173764413	4.934673764413
0	2000492	76.709670799954	4.934920799954
0	2000508	76.709742848385	4.968742848385
0	2000535	76.710167835495	4.935167835495
0	2000543	76.710461223832	4.968961223832
0	2000555	76.710664871036	4.935414871036
0	2000574	76.711179599279	4.969429599279
0	2000608	76.711897974726	4.969897974726
0	2000635	76.712616350173	4.970366350173
0	2000681	76.714053101067	4.970053101067
0	2000710	76.714771476514	4.970271476514
0	2000722	76.715306772707	4.936306772707
0	2000740	76.715489851961	4.970739851961
0	2000748	76.715803808248	4.936553808248
0	2000766	76.716208227408	4.971208227408
0	2000789	76.716300843789	4.936800843789
0	2000802	76.71679787933	4.93704787933
0	2000811	76.716926602855	4.971676602855
0	2000840	76.717644978302	4.972144978302
0	2000863	76.718363353749	4.972363353749
0	2000895	76.719081729196	4.972831729196
0	2000951	76.72051848009	4.97401848009
0	2000971	76.721236855537	4.974486855537
0	2000979	76.721439781001	4.937939781001
0	2000992	76.721936816542	4.938186816542
0	2000999	76.721955230984	4.973455230984
0	2001032	76.722673606431	4.973673606431
0	2001044	76.722930887624	4.938930887624
0	2001063	76.723391981878	4.974141981878
0	2001070	76.723427923165	4.939177923165
0	2001097	76.724110357325	4.974610357325
0	2001134	76.724828732772	4.975078732772
0	2001159	76.725547108219	4.975547108219
0	2001184	76.726265483666	4.975765483666
0	2001215	76.726983859113	4.976233859113
0	2001227	76.727572789295	4.939572789295
0	2001241	76.72770223456	4.97670223456
0	2001250	76.728069824836	4.939819824836
0	2001265	76.728420610007	4.977170610007
0	2001282	76.728566860377	4.940066860377
0	2001294	76.729063895918	4.940313895918
0	2001301	76.729138985454	4.976138985454
0	2001334	76.729857360901	4.976357360901
0	2001359	76.730575736348	4.976825736348
0	2001395	76.731294111795	4.977294111795
0	2001419	76.732012487242	4.977762487242
0	2001470	76.733449238136	4.978949238136
0	2001478	76.733705797589	4.940955797589
0	2001493	76.734167613583	4.979167613583
0	2001500	76.73420283313	4.94120283313
0	2001525	76.734699868671	4.941449868671
0	2001535	76.73488598903	4.97963598903
0	2001547	76.735196904212	4.941696904212
0	2001563	76.735604364477	4.980104364477
0	2001584	76.736322739924	4.980572739924
0	2001625	76.737041115371	4.979541115371
0	2001651	76.737759490818	4.979759490818
0	2001674	76.738477866265	4.980227866265
0	2001701	76.739196241712	4.980696241712
0	2001715	76.739838805883	4.942588805883
0	2001724	76.739914617159	4.981164617159
0	2001738	76.740335841424	4.942835841424
0	2001754	76.740632992606	4.981632992606
0	2001771	76.740832876965	4.943082876965
0	2001781	76.741329912506	4.943329912506
0	2001788	76.741351368053	4.981851368053
0	2001811	76.7420697435	4.9823197435
0	2001840	76.742788118947	4.982788118947
0	2001869	76.743506494394	4.983256494394
0	2001917	76.744943245288	4.982943245288
0	2001934	76.745661620735	4.983161620735
0	2001942	76.745971814177	4.944221814177
0	2001956	76.746379996182	4.983629996182
0	2001964	76.746468849718	4.944468849718
0	2001987	76.746965885259	4.944715885259
0	2001996	76.747098371629	4.984098371629
0	2002004	76.7474629208	4.9449629208
0	2002017	76.747816747076	4.984566747076
0	2002029	76.748535122523	4.985035122523
0	2002047	76.74925349797	4.98525349797
0	2002062	76.749971873417	4.985721873417
0	2002071	76.750690248864	4.986190248864
0	2002079	76.751408624311	4.986658624311
0	2002087	76.752104822471	4.945854822471
0	2002094	76.752126999758	4.985626999758
0	2002102	76.752601858012	4.946101858012
0	2002113	76.752845375205	4.985845375205
0	2002123	76.753098893553	4.946348893553
0	2002134	76.753563750652	4.986313750652
0	2002141	76.753595929094	4.946595929094
0	2002155	76.754282126099	4.986782126099
0	2002175	76.755000501546	4.987250501546
0	2002187	76.755718876993	4.987718876993
0	2002196	76.75643725244	4.98793725244
0	2002210	76.757874003334	4.989124003334
0	2002218	76.758237830765	4.947487830765
0	2002225	76.758592378781	4.989592378781
0	2002233	76.758734866306	4.947734866306
0	2002242	76.759231901847	4.947981901847
0	2002249	76.759310754228	4.990060754228
0	2002257	76.759728937388	4.948228937388
0	2002264	76.760029129675	4.989029129675
0	2002277	76.760747505122	4.989247505122
0	2002289	76.761465880569	4.989715880569
0	2002299	76.762184256016	4.990184256016
0	2002313	76.762902631463	4.990652631463
0	2002321	76.76362100691	4.99112100691
0	2002331	76.764339382357	4.991339382357
0	2002338	76.764370839059	4.949120839059
0	2002346	76.7648678746	4.9493678746
0	2002353	76.765057757804	4.991807757804
0	2002361	76.765364910141	4.949614910141
0	2002368	76.765776133251	4.992276133251
0	2002378	76.765861945682	4.949861945682
0	2002385	76.766494508698	4.992744508698
0	2002393	76.767212884145	4.991712884145
0	2002405	76.767931259592	4.991931259592
0	2002415	76.768649635039	4.992399635039
0	2002427	76.769368010486	4.992868010486
0	2002437	76.770086385933	4.993336385933
0	2002445	76.77080476138	4.99380476138
0	2002453	76.771523136827	4.994023136827
0	2002463	76.772241512274	4.994491512274
0	2002471	76.772959887721	4.994959887721
0	2002479	76.773678263168	4.995428263168
0	2002493	76.775115014062	4.995115014062
0	2002503	76.775833389509	4.995333389509
0	2002513	76.776551764956	4.995801764956
0	2002525	76.777270140403	4.996270140403
0	2002535	76.77798851585	4.99673851585
0	2002543	76.778706891297	4.997206891297
0	2002551	76.779425266744	4.997425266744
0	2002559	76.780143642191	4.997893642191
0	2002571	76.780862017638	4.998362017638
0	2002581	76.781580393085	4.998830393085
0	2002591	76.782298768532	4.997798768532
0	2002609	76.783017143979	4.998017143979
0	2002622	76.783735519426	4.998485519426
0	2002638	76.78517227032	4.99967227032
0	2002648	76.785890645767	5.000140645767
0	2002658	76.786609021214	5.000609021214
0	2002670	76.787327396661	5.000827396661
0	2002678	76.788045772108	5.001295772108
0	2002688	76.788764147555	5.001764147555
0	2002698	76.789482523002	5.002232523002
0	2002706	76.790200898449	5.001200898449
0	2002716	76.790919273896	5.001419273896
0	2002726	76.791637649343	5.001887649343
0	2002738	76.79235602479	5.00235602479
0	2002754	76.793074400237	5.002824400237
0	2002768	76.793792775684	5.003042775684
0	2002777	76.794511151131	5.003261151131
0	2002785	76.795229526578	5.003729526578
0	2002795	76.795947902025	5.004197902025
0	2002803	76.796666277472	5.004666277472
0	2002813	76.797384652919	5.003634652919
0	2002825	76.798103028366	5.003853028366
0	2002835	76.798821403813	5.004321403813
0	2002845	76.79953977926	5.00478977926
0	2002855	76.800258154707	5.005258154707
0	2002865	76.800976530154	5.005726530154
0	2002873	76.801694905601	5.005944905601
0	2002881	76.802413281048	5.006413281048
0	2002893	76.803131656495	5.006881656495
0	2002907	76.803850031942	5.007350031942
0	2002923	76.805286782836	5.007036782836
0	2002933	76.806005158283	5.007255158283
0	2002945	76.80672353373	5.00772353373
0	2002959	76.807441909177	5.008191909177
0	2002971	76.808160284624	5.008660284624
0	2002983	76.809597035518	5.009847035518
0	2002991	76.810315410965	5.010065410965
0	2002999	76.811033786412	5.010533786412
0	2003011	76.812470537306	5.011720537306
0	2003021	76.813188912753	5.012188912753
0	2003032	76.8139072882	5.0111572882
0	2003046	76.814625663647	5.011375663647
0	2003056	76.815344039094	5.011844039094
0	2003068	76.816062414541	5.012312414541
0	2003081	76.816780789988	5.012780789988
0	2003090	76.817499165435	5.013249165435
0	2003098	76.818217540882	5.013467540882
0	2003108	76.818935916329	5.013935916329
0	2003118	76.819654291776	5.014404291776
0	2003126	76.820372667223	5.014872667223
0	2003138	76.821809418117	5.014559418117
0	2003148	76.822527793564	5.014777793564
0	2003158	76.823246169011	5.015246169011
0	2003170	76.823964544458	5.015714544458
0	2003182	76.824682919905	5.016182919905
0	2003192	76.825401295352	5.016651295352
0	2003200	76.826119670799	5.016869670799
0	2003208	76.826838046246	5.017338046246
0	2003221	76.827556421693	5.017806421693
0	2003229	76.82827479714	5.01827479714
0	2003243	76.829711548034	5.017961548034
0	2003253	76.830429923481	5.018179923481
0	2003265	76.831148298928	5.018648298928
0	2003275	76.831866674375	5.019116674375
0	2003287	76.832585049822	5.019585049822
0	2003297	76.833303425269	5.020053425269
0	2003305	76.834021800716	5.020271800716
0	2003315	76.834740176163	5.020740176163
0	2003325	76.83545855161	5.02120855161
0	2003333	76.836176927057	5.021676927057
0	2003341	76.836895302504	5.020645302504
0	2003354	76.837613677951	5.020863677951
0	2003364	76.838332053398	5.021332053398
0	2003374	76.839050428845	5.021800428845
0	2003383	76.839768804292	5.022268804292

