version 2
run Net10-0-20190124-16:23:51-18082
attr configname Net10
attr datetime 20190124-16:23:51
attr experiment Net10
attr inifile omnetpp.ini
attr iterationvars ""
attr iterationvarsf ""
attr measurement ""
attr network mogp.networks.Net10
attr processid 18082
attr repetition 0
attr replication #0
attr resultdir results
attr runnumber 0
attr seedset 0
param **.eventStorage.packetLength "1024 byte"
param **.node[*].operator[*].packetLength "1024 byte"

vector 0 Net10.eventStorage "End-to-End Delay" ETV
0	87	5	0
0	94	5.000740740741	0
0	101	5.001481481482	0
0	108	5.002222222223	0
0	115	5.002962962964	0
0	122	5.003703703705	0
0	129	5.004444444446	0
0	136	5.005185185187	0
0	143	5.005925925928	0
0	33238	7.73333333411	0
0	33250	7.733939394716	0
0	33425	7.745649239319	0.010497723391
0	33447	7.74693348083	0.01056984369
0	33474	7.748145602042	0.01056984369
0	33622	7.757924634149	0.020954936403
0	33644	7.759033418598	0.020851599639999
0	33732	7.766251445804	0.031705990482
0	33758	7.767463567016	0.031705990482
0	70447	10.152034633874	0
0	70460	10.15251082435	0
0	70648	10.163960928693	0.010497723391
0	70667	10.164985429944	0.01056984369
0	70694	10.165937810896	0.01056984369
0	70886	10.175846713133	0.020954936402999
0	70910	10.176695757322	0.02085159964
0	71068	10.184934842552	0.031947827726
0	71083	10.18564538626	0.031705990481999
0	111664	12.388193363002	0
0	111679	12.388610029669	0
0	111917	12.400397076859	0.010953713855999
0	111926	12.400846540027	0.01056984369
0	111951	12.401679873361	0.01056984369
0	112163	12.411648299407	0.020954936403001
0	112185	12.412378295978	0.02085159964
0	112361	12.420855476468	0.031828780132001
0	112383	12.421566020152	0.031705990481999
0	156258	14.515230400666	0
0	156269	14.515600771036	0
0	156553	14.527063744189	0.010722232413
0	156571	14.527652096206	0.01056984369
0	156597	14.528392836946	0.01056984369
0	156836	14.538407559289	0.020954936403001
0	156858	14.539044963266	0.020851599639998
0	157045	14.547677131888	0.031705990481999
0	157076	14.548818440018	0.032106557872
0	217584	16.831897066066	0
0	217595	16.832230399399	0
0	217965	16.843434113293	0.010537047228002
0	217990	16.844133576421	0.01056984369
0	218016	16.844800243087	0.01056984369
0	218348	16.854852002467	0.020954936402998
0	218372	16.85541533237	0.02085159964
0	218641	16.864269723214	0.031705990482003
0	218675	16.865265169996	0.032034770597999
0	270739	18.821941797408	0
0	270750	18.822244827711	0
0	271066	18.833348611708	0.010497723391001
0	271088	18.834026792613	0.01056984369
0	271113	18.834632853219	0.01056984369
0	271433	18.845208784901	0.021448805675
0	271442	18.845217639472	0.02085159964
0	271685	18.854253848496	0.031705990481999
0	271726	18.855249295278	0.032095376657999
0	337630	20.973418520325	0
0	337647	20.973696298103	0
0	338012	20.98474957705	0.010497723391001
0	338036	20.985377252905	0.01056984369
0	338062	20.985947096595	0.010584131824
0	338411	20.996040123396	0.020954936403001
0	338434	20.996492342189	0.02085159964
0	338757	21.005802856013	0.031828780131999
0	338799	21.006798302795	0.032268671357997
0	397980	22.897756127005	0
0	397992	22.898012537261	0
0	398332	22.909023081164	0.010497723391001
0	398359	22.909608021975	0.01056984369
0	398382	22.910177865665	0.010626866867998
0	398717	22.920249524944	0.020954936403001
0	398741	22.920659008693	0.02085159964
0	399048	22.930290035291	0.032021087773998
0	399085	22.931285482073	0.032503714044001
0	468613	24.964596445625	0
0	468625	24.964834540863	0
0	468991	24.97580845473	0.010497723391001
0	469011	24.976356765505	0.01056984369
0	469036	24.976926609195	0.010663496904002
0	469393	24.986979953456	0.020954936403001
0	469416	24.987352807169	0.02085159964
0	469732	24.996778626583	0.031705990481999
0	469772	24.997774073365	0.032225246788002
0	534172	26.803223153214	0
0	534185	26.803445375436	0
0	534616	26.814387543271	0.010497723391001
0	534640	26.814904108014	0.01056984369
0	534677	26.815473951704	0.010695242936002
0	535090	26.825840203065	0.021283716519001
0	535099	26.82585253063	0.02085159964
0	535475	26.83537358814	0.031705990481999
0	535516	26.836440822196	0.032328780094002
0	611270	28.799340981232	0
0	611280	28.799549314565	0
0	611721	28.810463704622	0.010497723390998
0	612174	28.821545917633	0.020954936403001
0	612206	28.821859247536	0.02085159964
0	612248	28.822946053121	0.022563405224002
0	612278	28.823515896811	0.022716582247998
0	612602	28.83158642798	0.031828780082002
0	612647	28.832581874762	0.032407560197999
0	682975	30.607704764566	0
0	682985	30.607900842997	0
0	683421	30.61879072325	0.010497723391001
0	683441	30.619255000411	0.01056984369
0	683475	30.619824844101	0.010747530518
0	683877	30.629836171555	0.020954936403001
0	683907	30.630124991654	0.02085159964
0	684317	30.640072760327	0.031975838898997
0	684358	30.641068207109	0.032579128819002
0	770251	32.568494365478	0
0	770264	32.568679550663	0
0	770714	32.579547644424	0.010497723390998
0	770736	32.579990135093	0.01056984369
0	770775	32.580559978783	0.010769317010002
0	771202	32.590560412991	0.020954936402994
0	771223	32.590827446598	0.020851599639997
0	771641	32.60057072633	0.031705990481996
0	771688	32.601566173112	0.032331066893995
0	846122	34.356764211854	0
0	846133	34.35693965045	0
0	846563	34.367788251033	0.010497723390998
0	847017	34.378771779833	0.020954936403001
0	847037	34.379019320262	0.020851599639997
0	847416	34.388821079528	0.031705990482003
0	847461	34.38981652631	0.032350560072004
0	848092	34.406711178128	0.049069773294001
0	848118	34.407281021818	0.049288739792004
0	926051	36.141387017675	0
0	926059	36.141553684342	0
0	926619	36.152384741067	0.010497723390998
0	926643	36.1527901947	0.01056984369
0	926683	36.15336003839	0.010806354045997
0	927184	36.16334195408	0.020954936402994
0	927207	36.163571950651	0.020851599639997
0	927827	36.175998721769	0.034278370759999
0	927877	36.176994168551	0.034940484208001
0	1021324	38.068589303576	0
0	1021336	38.068748033735	0
0	1021893	38.079952798061	0.01056984369
0	1021915	38.080239235892	0.011173741839002
0	1021935	38.080522641751	0.010822227062
0	1022464	38.091194172295	0.021652487764996
0	1024137	38.125087690065	0.055228545217005
0	1024652	38.135406700737	0.066499936843002
0	1024739	38.13689987091	0.067675646698
0	1109777	39.83597210491	0
0	1109788	39.83612714367	0
0	1110339	39.847032765914	0.010595544724005
0	1110359	39.8473171424	0.01056984369
0	1110395	39.84788698609	0.010829609859996
0	1110925	39.857987702317	0.021085364846996
0	1110934	39.85806401463	0.020851599640004
0	1111455	39.868362900572	0.032080718142005
0	1111508	39.869358347354	0.032766087403999
0	1209052	41.744716293758	0
0	1209062	41.744864441906	0
0	1209640	41.755658461593	0.010497723391005
0	1210246	41.766753078582	0.020851599639997
0	1210276	41.767111121387	0.021505938740994
0	1210881	41.778553737579	0.033541147525
0	1210938	41.779549184361	0.034240298011007
0	1227250	42.08544150238	0.339984467882
0	1227285	42.08601134607	0.340258015276
0	1306220	43.557973908022	0
0	1306227	43.558115751994	0
0	1311210	43.653301014902	0.094901574963998
0	1311779	43.664255951305	0.105430979451
0	1313845	43.703301877456	0.144193217658
0	1317594	43.77445819954	0.215775071658
0	1317626	43.77502804323	0.216061227404
0	1320059	43.822526967842	0.264269371876
0	1320132	43.824020138015	0.26547885410501
0	1404761	45.399131820628	0
0	1404768	45.39926787505	0
0	1416372	45.610349388314	0.21080940442
0	1416511	45.61277394348	0.212961850742
0	1416552	45.61334378717	0.21325958558801
0	1417018	45.621304324717	0.22135617755701
0	1426890	45.798748211209	0.398527955205
0	1435579	45.954276251495	0.55487232202299
0	1435633	45.955271698277	0.555595659961
0	1508246	47.281508716063	0
0	1508258	47.281639435017	0
0	1522472	47.539244865218	0.257343992293
0	1523087	47.550199801621	0.267906771834
0	1530159	47.676621011817	0.394066544122
0	1542375	47.889144409091	0.60737425512
0	1542444	47.890139855873	0.608108263994
0	1551719	48.05398431144	0.771822000607
0	1551754	48.05455415513	0.772130406389
0	1607321	49.037300995281	0
0	1607335	49.037426781445	0
0	1612403	49.126484759117	0.088806405344002
0	1613060	49.13743969552	0.099383983255002
0	1615726	49.184008630704	0.145701346111
0	1621510	49.288244861192	0.250692293583
0	1621567	49.289240307974	0.251436168037
0	1672822	50.21369189654	1.175761970439
0	1672865	50.21426174023	1.176080241801
0	1712789	50.919451009699	0
0	1712797	50.919574466489	0
0	1735561	51.307010935088	0.38718955501901
0	1736239	51.317965871491	0.397774121052
0	1743433	51.442275345009	0.52183668099
0	1760727	51.740030285258	0.82033236197901
0	1760815	51.741523455431	0.821578618572
0	1811852	52.63324820428	1.713179910631
0	1811886	52.63381804797	1.713502840741
0	1813853	52.668646293792	0
0	1813861	52.668765341411	0
0	1835480	53.05003825037	0.381034813721
0	1836113	53.060993186773	0.391632607267
0	1848481	53.27097339573	0.60137472098599
0	1879362	53.791148379569	1.122263990539
0	1879456	53.792641549742	1.123519065474
0	1923407	54.543307586129	0
0	1923418	54.543422528658	0
0	1935684	54.75876516798	2.089523636093
0	1935725	54.75933501167	2.089855384545
0	1959692	55.175814853331	0.632162439615
0	1960364	55.186769789734	0.642772548431
0	1976134	55.460387874642	0.916160748281
0	2032755	56.402884180183	0
0	2032762	56.402995291294	0
0	2037537	56.482338754706	1.938801283519
0	2037604	56.483334201488	1.939566845243
0	2093450	57.406113368402	1.002895854886
0	2094144	57.417068304805	1.013517457956
0	2099872	57.5099705033	2.966088204526
0	2099911	57.51054034699	2.966428163158
0	2106265	57.617324884029	1.213551814958
0	2142125	58.226473752053	0
0	2142140	58.226581278935	0
0	2174101	58.759920991922	2.356814589517
0	2174205	58.761414162095	2.358085537468
0	2230320	59.675732031362	1.448935698663
0	2230996	59.686686967765	1.45956805442
0	2250200	60.000247437287	0
0	2250216	60.000353257393	0
0	2266778	60.267486397269	2.04015243016
0	2272266	60.35804926592	3.954609530182
0	2272307	60.35861910961	3.95495715165
0	2330473	61.305805439325	0
0	2330488	61.305908003428	0
0	2330548	61.306831080355	0
0	2330558	61.306933644458	0
0	2330611	61.307754157282	0
0	2330621	61.307856721385	0
0	2330678	61.308677234209	0
0	2330690	61.308779798312	0
0	2330739	61.309600311136	0
0	2330749	61.309702875239	0
0	2330805	61.310523388063	0
0	2330814	61.310625952166	0
0	2330877	61.311549029093	0
0	2330884	61.311651593196	0
0	2330943	61.31247210602	0
0	2330953	61.312574670123	0
0	2331007	61.313395182947	0
0	2331014	61.31349774705	0
0	2331077	61.314318259874	0
0	2331084	61.314420823977	0
0	2331135	61.315241336801	0
0	2331142	61.315343900904	0
0	2331214	61.316266977831	0
0	2331226	61.316369541934	0
0	2331284	61.317190054758	0
0	2331294	61.317292618861	0
0	2331345	61.318113131685	0
0	2331353	61.318215695788	0
0	2331410	61.319036208612	0
0	2331418	61.319138772715	0
0	2331477	61.319959285539	0
0	2331484	61.320061849642	0
0	2331548	61.320984926569	0
0	2331563	61.321087490672	0
0	2331621	61.321908003496	0
0	2331629	61.322010567599	0
0	2331687	61.322831080423	0
0	2331694	61.322933644526	0
0	2331746	61.32375415735	0
0	2331753	61.323856721453	0
0	2331806	61.324677234277	0
0	2331817	61.32477979838	0
0	2331877	61.325702875307	0
0	2331892	61.32580543941	0
0	2331945	61.326625952234	0
0	2331960	61.326728516337	0
0	2332010	61.327549029161	0
0	2332024	61.327651593264	0
0	2332074	61.328472106088	0
0	2332084	61.328574670191	0
0	2332138	61.329395183015	0
0	2332145	61.329497747118	0
0	2332206	61.330420824045	0
0	2332215	61.330523388148	0
0	2332265	61.331343900972	0
0	2332276	61.331446465075	0
0	2345205	61.739293210448	1.738728312843
0	2345583	61.750248146851	1.749365788928
0	2355915	62.081229180065	3.854540374248
0	2355971	62.082722350238	3.855818490657
0	2360580	62.224362194382	2.223268196247
0	2375062	62.68301152112	4.456000134657
0	2375083	62.68358136481	4.456354924583
0	2403377	63.557974481162	2.251861349528
0	2403435	63.558969927944	2.25183115528
0	2403467	63.559965374726	2.251903525135
0	2403502	63.560960821508	2.25197589499
0	2403540	63.56195626829	2.252048264845
0	2403578	63.562951715072	2.2521206347
0	2403628	63.563947161854	2.252090440452
0	2403664	63.564942608636	2.252162810307
0	2403700	63.565938055418	2.252235180162
0	2403738	63.5669335022	2.252307550017
0	2403777	63.567928948982	2.252379919872
0	2403846	63.568924395764	2.252349725624
0	2403853	63.568929417565	2.262508593622
0	2403894	63.569919842546	2.252422095479
0	2403901	63.569924864347	2.262478399374
0	2403938	63.570915289328	2.252494465334
0	2403945	63.570920311129	2.262550769229
0	2403978	63.57191073611	2.252566835189
0	2403985	63.571915757911	2.262623139084
0	2404028	63.572906182892	2.252639205044
0	2404035	63.572911204693	2.262695508939
0	2404090	63.573901629674	2.252609010796
0	2404097	63.573906651475	2.262767878794
0	2404134	63.574897076456	2.252681380651
0	2404141	63.574902098257	2.262737684546
0	2404181	63.575892523238	2.252753750506
0	2404188	63.575897545039	2.262810054401
0	2404223	63.57688797002	2.252826120361
0	2404230	63.576892991821	2.262882424256
0	2404262	63.577883416802	2.252898490216
0	2404269	63.577888438603	2.262954794111
0	2404333	63.578878863584	2.252868295968
0	2404340	63.578883885385	2.263027163966
0	2404376	63.579874310366	2.252940665823
0	2404383	63.579879332167	2.262996969718
0	2404424	63.580869757148	2.253013035678
0	2404431	63.580874778949	2.263069339573
0	2404464	63.58186520393	2.253085405533
0	2404471	63.581870225731	2.263141709428
0	2404510	63.582860650712	2.253157775388
0	2404517	63.582865672513	2.263214079283
0	2404575	63.583856097494	2.25312758114
0	2404582	63.583861119295	2.263286449138
0	2404615	63.584851544276	2.253199950995
0	2404622	63.584856566077	2.26325625489
0	2404666	63.585852012859	2.263328624745
0	2404702	63.586847459641	2.2634009946
0	2404734	63.587842906423	2.263473364455
0	2404785	63.588838353205	2.26354573431
0	2404815	63.589833799987	2.263515540062
0	2404849	63.590829246769	2.263587909917
0	2404880	63.591824693551	2.263660279772
0	2404914	63.592820140333	2.263732649627
0	2404955	63.593815587115	2.263805019482
0	2404989	63.594811033897	2.263774825234
0	2405024	63.595806480679	2.263847195089
0	2409505	63.744620752787	3.744161675288
0	2409525	63.745118476178	3.744447758467
0	2422518	64.217612757363	2.910986805214
0	2422569	64.218911856144	2.911260262965
0	2422624	64.220210954925	2.911636284819
0	2422671	64.221510053706	2.912012306673
0	2422723	64.222809152487	2.912388328527
0	2422778	64.224108251268	2.912764350381
0	2422824	64.225407350049	2.913037808132
0	2422880	64.22670644883	2.913413829986
0	2422912	64.227601082351	2.92159051482
0	2422938	64.228005547611	2.91378985184
0	2422948	64.228376316515	2.922160620778
0	2422980	64.229151550679	2.922115342118
0	2422998	64.229304646392	2.914165873694
0	2423023	64.229926784843	2.922685448076
0	2423057	64.230603745173	2.914541895548
0	2423062	64.230702019007	2.922742733519
0	2423099	64.231477253171	2.923312839477
0	2423124	64.231902843954	2.914815353299
0	2423131	64.232252487335	2.92337012492
0	2423163	64.233027721499	2.923940230878
0	2423185	64.233201942735	2.915191375153
0	2423207	64.233802955663	2.923997516321
0	2423238	64.234501041516	2.915567397007
0	2423245	64.234578189827	2.924567622279
0	2423275	64.235353423991	2.924624907722
0	2423297	64.235800140297	2.915943418861
0	2423310	64.236128658155	2.92519501368
0	2423338	64.236903892319	2.92514973502
0	2423357	64.237099239078	2.916319440715
0	2423379	64.237679126483	2.925719840978
0	2423410	64.238398337859	2.916592898466
0	2423415	64.238454360647	2.925777126421
0	2423439	64.239229594811	2.926347232379
0	2423477	64.23969743664	2.91696892032
0	2423485	64.240004828975	2.926404517822
0	2423516	64.240780063139	2.92697462378
0	2423535	64.240996535421	2.917344942174
0	2423559	64.241555297303	2.927031909223
0	2423590	64.242295634202	2.917720964028
0	2423597	64.242330531467	2.927602015181
0	2423614	64.243105765631	2.927659300624
0	2423635	64.243594732983	2.918096985882
0	2423645	64.243880999795	2.928229406582
0	2423662	64.244656233959	2.928184127922
0	2423672	64.244893831764	2.918370443633
0	2423688	64.245431468123	2.92875423388
0	2423713	64.246192930545	2.918746465487
0	2423718	64.246206702287	2.928811519323
0	2423737	64.246981936451	2.929381625281
0	2423756	64.247492029326	2.919122487341
0	2423761	64.247757170615	2.929438910724
0	2423786	64.248532404779	2.930009016682
0	2423797	64.248791128107	2.919498509195
0	2423813	64.249307638943	2.930066302125
0	2423836	64.250082873107	2.930636408083
0	2423845	64.250090226888	2.919874531049
0	2423859	64.250858107271	2.930693693526
0	2423877	64.251389325669	2.9201479888
0	2423885	64.251633341435	2.931263799484
0	2423907	64.252408575599	2.931218520824
0	2423918	64.25268842445	2.920524010654
0	2423932	64.253183809763	2.931788626782
0	2423947	64.253959043927	2.931845912225
0	2423966	64.254734278091	2.932416018183
0	2423981	64.255509512255	2.932473303626
0	2423997	64.256284746419	2.933043409584
0	2424018	64.257059980583	2.933100695027
0	2424035	64.257835214747	2.933670800985
0	2424049	64.258610448911	2.933728086428
0	2424069	64.259385683075	2.934298192386
0	2424084	64.260160917239	2.934252913726
0	2424099	64.260936151403	2.934823019684
0	2424108	64.261711385567	2.934880305127
0	2424120	64.262486619731	2.935450411085
0	2424132	64.263261853895	2.935507696528
0	2424145	64.264037088059	2.936077802486
0	2424154	64.264812322223	2.936135087929
0	2424171	64.265587556387	2.936705193887
0	2424182	64.266362790551	2.93676247933
0	2424193	64.267138024715	2.937332585288
0	2424206	64.267913258879	2.937287306628
0	2424218	64.268688493043	2.937857412586
0	2424230	64.269463727207	2.937914698029
0	2424241	64.270238961371	2.938484803987
0	2433088	65.40116592242	5.400389384603
0	2433098	65.40173576611	5.400747588081
0	2451368	67.75234098736	6.44602272752
0	2451393	67.75291083105	6.446387443004
0	2451399	67.75348067474	6.44613677387
0	2451409	67.75405051843	6.446501489354
0	2451416	67.75462036212	6.446353384323
0	2451426	67.75519020581	6.446718099807
0	2451432	67.7557600495	6.446569994776
0	2451442	67.75632989319	6.44693471026
0	2451448	67.75689973688	6.446786605229
0	2451458	67.75746958057	6.447151320713
0	2451464	67.75803942426	6.447003215682
0	2451489	67.75860926795	6.447367931166
0	2451495	67.75917911164	6.447117262032
0	2451505	67.75974895533	6.447481977516
0	2451512	67.76031879902	6.447333872485
0	2451522	67.76088864271	6.447698587969
0	2451528	67.7614584864	6.447550482938
0	2451538	67.76202833009	6.447915198422
0	2451544	67.76259817378	6.447767093391
0	2451562	67.76316801747	6.448131808875
0	2451568	67.76373786116	6.447983703844
0	2451593	67.76430770485	6.448348419328
0	2451599	67.76487754854	6.448097750194
0	2451609	67.76544739223	6.448462465678
0	2451616	67.76601723592	6.448314360647
0	2451626	67.76658707961	6.448679076131
0	2451632	67.7671569233	6.4485309711
0	2451642	67.76772676699	6.448895686584
0	2451648	67.76829661068	6.448747581553
0	2451666	67.76886645437	6.449112297037
0	2451672	67.76943629806	6.448964192006
0	2451697	67.77000614175	6.44932890749
0	2451703	67.77057598544	6.449078238356
0	2451713	67.77114582913	6.44944295384
0	2451720	67.77171567282	6.449294848809
0	2451730	67.77228551651	6.449659564293
0	2451736	67.7728553602	6.449511459262
0	2451746	67.77342520389	6.449876174746
0	2451752	67.77399504758	6.449728069715
0	2451769	67.77456489127	6.450092785199
0	2451774	67.77513473496	6.449944680168
0	2451798	67.77570457865	6.450309395652
0	2451803	67.77627442234	6.450058726518
0	2451812	67.77684426603	6.450423442002
0	2451817	67.77741410972	6.450275336971
0	2451826	67.77798395341	6.450640052455
0	2451831	67.7785537971	6.450491947424
0	2451840	67.77912364079	6.450856662908
0	2451845	67.77969348448	6.450708557877
0	2451862	67.78026332817	6.451073273361
0	2451867	67.78083317186	6.45092516833
0	2451891	67.78140301555	6.451289883814
0	2451896	67.78197285924	6.45103921468
0	2451905	67.78254270293	6.451403930164
0	2451910	67.78311254662	6.451255825133
0	2451919	67.78368239031	6.451620540617

