version 2
run Net10-0-20190226-16:09:18-3164
attr configname Net10
attr datetime 20190226-16:09:18
attr experiment Net10
attr inifile omnetpp.ini
attr iterationvars ""
attr iterationvarsf ""
attr measurement ""
attr network mogp.networks.Net10
attr processid 3164
attr repetition 0
attr replication #0
attr resultdir results
attr runnumber 0
attr seedset 0
param **.eventStorage.packetLength "1024 byte"
param **.node[*].operator[*].packetLength "1024 byte"

vector 0 Net10.eventStorage "End-to-End Delay" ETV
0	98	5	0
0	105	5.000833333333	0
0	112	5.001666666666	0
0	119	5.002499999999	0
0	126	5.003333333332	0
0	133	5.004166666665	0
0	140	5.004999999998	0
0	147	5.005833333331	0
0	154	5.006666666664	0
0	161	5.007499999997	0
0	168	5.00833333333	0
0	175	5.009166666663	0
0	62496	7.733260784239	0.021300000868
0	62534	7.734063749566	0.021808848548
0	62576	7.734866714893	0.022317696228001
0	62633	7.735621320614	0.021307596067
0	63517	7.755616715444	0.042479461485
0	63569	7.756617370022	0.042009527828
0	63984	7.766019208017	0.052587836411
0	64050	7.767353068507	0.052451108666
0	64441	7.776207595559	0.063364459247
0	64956	7.787478976965	0.073753487712
0	65003	7.788642202331	0.073446124843001
0	65907	7.808355164566	0.094335557666
0	124174	9.087646709462	0.021519258631001
0	124218	9.088449674789	0.022044446180001
0	124266	9.089252640116	0.022569633728999
0	124319	9.089706288729	0.021356615674
0	125232	9.109734363297	0.042495801353999
0	125297	9.110997667249	0.042370216416
0	125725	9.120104176132	0.052587836411
0	125784	9.121356337277	0.052451108666
0	126209	9.130325243412	0.063364459247
0	126719	9.14156394508	0.073769827581
0	126777	9.142629131232	0.073446124842999
0	127676	9.163018071156	0.094946175879
0	299100	12.872800191744	0.021950515663001
0	299991	12.890957066844	0.042329612986999
0	300033	12.891793768654	0.042055203684999
0	300056	12.892244452926	0.043339221291001
0	300571	12.902979812691	0.052963469944
0	301033	12.912842630238	0.063659620825
0	301082	12.913891565248	0.063597444722999
0	301162	12.915417402402	0.064012170765
0	301227	12.916704788484	0.065021779068999
0	301255	12.917348481525	0.066221027666
0	301632	12.926175194319	0.075603296015998
0	302832	12.955868929411	0.10640814222
0	475911	16.895404882968	0.042055203684999
0	477023	16.917254473664	0.063349238824998
0	479421	16.965208261924	0.110747471529
0	480329	16.983552698095	0.131314129924
0	480368	16.984196391136	0.131680045187
0	480892	16.995387882871	0.14176042581
0	481320	17.004671448271	0.151877324544
0	481358	17.005315141312	0.150298795361
0	481395	17.005958834353	0.150664710624
0	481910	17.017114325252	0.162931312635
0	484913	17.088136657393	0.23339808922
0	486694	17.128354574581	0.275282673076
0	663363	20.940419353237	0.031584101243002
0	663432	20.941595258396	0.031617149258
0	663472	20.942313633843	0.032049810419
0	663539	20.943257894528	0.032136928246
0	664425	20.962058488055	0.052937521775
0	664458	20.962791486006	0.05338480544
0	664478	20.963161703145	0.052612165435001
0	664492	20.963435179047	0.053742784195002
0	664537	20.964465078645	0.053058398076999
0	664989	20.97407436787	0.063239115874001
0	665560	20.986297888023	0.074605493168999
0	666547	21.008400751736	0.096422642596
0	852002	25.030457607623	0.031783527291001
0	852050	25.031316870614	0.031617149258
0	852090	25.032035246061	0.032079114449001
0	852126	25.032599798329	0.031874435949
0	853105	25.051765171594	0.052834681006001
0	853179	25.053302635427	0.053090093559
0	853219	25.053981562601	0.052999789965
0	853848	25.065879513915	0.066692613071002
0	853930	25.066988290177	0.067544979077002
0	854444	25.076488582295	0.076019630171
0	855150	25.089155330774	0.087917147881999
0	856307	25.110693792278	0.10919919913
0	1037500	28.726105810039	0.031790709978999
0	1037548	28.726957890342	0.031617149258
0	1037592	28.727676265789	0.032079114449001
0	1037636	28.728386094182	0.032019712074
0	1038680	28.747406191322	0.052834681006001
0	1038748	28.748465727031	0.052612165435001
0	1038827	28.749924555686	0.053301763322001
0	1040297	28.776928121313	0.082100200740999
0	1040345	28.777571814354	0.082487483526002
0	1040930	28.788521901506	0.092411929653998
0	1041574	28.800745421659	0.103866219039
0	1042754	28.822682326948	0.125546714072
0	1223109	32.090594236561	0.152159481811
0	1224163	32.11196739855	0.172643754912
0	1224222	32.112959040587	0.172746508061
0	1225544	32.13920660342	0.199438515338
0	1225580	32.139867887854	0.199433133106
0	1225827	32.144822800125	0.205276934265
0	1226872	32.165706781328	0.227049804356
0	1229134	32.209277988526	0.269287678222
0	1237726	32.37273574904	0.431856549848
0	1238116	32.380182973397	0.439525996427
0	1238215	32.381912130526	0.443032931332
0	1238281	32.383226346589	0.444124925173
0	1323718	34.359598454547	0.010497035541
0	1325142	34.393892379084	0.042790960080005
0	1362253	35.329751840041	0.979761532147
0	1362609	35.338685831219	0.989362189991
0	1362693	35.340852746094	0.989973549312
0	1362749	35.342140132176	0.99081649095
0	1362775	35.342783825217	0.991237961769
0	1363439	35.359748721232	1.009536191116
0	1363469	35.360392414273	1.009957661935
0	1363477	35.360539933532	1.010994070082
0	1363530	35.361679800355	1.011022825795
0	1364313	35.382052178725	1.032284093053
0	1480524	38.363376228321	0.010497035541
0	1481906	38.397649275771	0.042770082993002
0	1591752	41.095034770123	2.741266688455
0	1592165	41.103703629997	2.750602214995
0	1592270	41.106135676176	2.75147870562
0	1592309	41.106779369217	2.751677954217
0	1592361	41.108066755299	2.752743118077
0	1593124	41.125087170214	2.771096866324
0	1593136	41.12529507109	2.771971433866
0	1593161	41.125730863255	2.771518337143
0	1593213	41.127018249337	2.772583501003
0	1594058	41.147113033207	2.793567173761
0	1644795	42.369047277866	0.010612533536005
0	1645161	42.377533093002	0.020876126448002
0	1645646	42.389169990121	0.031624134678999
0	1645719	42.391215366936	0.032336178162005
0	1645770	42.392440434008	0.033339023012005
0	1646033	42.39915024226	0.042271053484001
0	1832558	46.380158344779	4.021501378227
0	1832888	46.387291789176	4.030190378178
0	1832947	46.388606005239	4.031282372019
0	1833455	46.399765310635	4.041997232971
0	1833490	46.400604403604	4.042614103718
0	1833526	46.401248096645	4.043035574537
0	1835223	46.438199321421	0.010612533535998
0	1835619	46.446357651173	0.020876126448002
0	1836153	46.458158290984	0.031624134679006
0	1836234	46.459976216974	0.031863113298996
0	1836298	46.461201284046	0.032825022475997
0	1836594	46.467974800431	0.042230117811002
0	2043460	51.14973103709	0.010612533535998
0	2043858	51.157943347954	0.020876126447995
0	2044417	51.169716997209	0.031624134678999
0	2044514	51.171494437365	0.031863113298996
0	2044549	51.172247981587	0.032360247264997
0	2044896	51.179560497212	0.04223686545
0	2050846	51.313174865346	4.885324919566
0	2051174	51.320689112023	4.894681271508
0	2051222	51.321565256065	4.895294257655
0	2051722	51.332333538089	4.905536223889
0	2051759	51.33297723113	4.905916759035
0	2051784	51.333620924171	4.906297294181
0	2269321	56.298538884462	5.159163970652
0	2269638	56.305672328859	5.168092286841
0	2269700	56.306986544922	5.169150092648
0	2270177	56.317697557205	5.179348284419
0	2270206	56.318341250246	5.179735567204
0	2270265	56.319628636328	5.18076654303
0	2293245	56.824542685724	0.021050557591998
0	2294240	56.845087515195	0.042166815634999
0	2294838	56.857859605476	0.053224620200005
0	2480648	60.818771917504	0.010708356796002
0	2481062	60.826806330603	0.021028484182999
0	2481087	60.827244402624	0.021180841917996
0	2481643	60.838795139513	0.031874435949
0	2481735	60.840509425229	0.031874435949
0	2481763	60.84100646077	0.032657185775996
0	2482706	60.861979101643	0.053058398077006
0	2483141	60.871326145928	0.063548299506003
0	2537415	62.119851055806	5.31664464196
0	2537443	62.120439229947	5.316661387529
0	2538198	62.139187439436	5.337123882734
0	2538221	62.139831132477	5.337481861489
0	2538251	62.140474825518	5.337839840244
0	2538326	62.142201673164	5.33813811646
0	2539161	62.163134838396	5.358785567406
0	2540039	62.184897281613	5.379976582051
0	2540915	62.20665972483	5.401453310982
0	2637339	64.49305374862	0.010699953434994
0	2637702	64.500876980457	0.020876126448002
0	2637725	64.501315052478	0.021020080821998
0	2638241	64.513051760546	0.031874435949007
0	2638319	64.514801363924	0.032153451092
0	2638345	64.515298399465	0.032356368986001
0	2639165	64.536311352901	0.053075204774998
0	2639535	64.545607977044	0.063548299505996
0	2680338	65.590229281924	4.783880006932
0	2680372	65.590872974965	4.784237985687
0	2680420	65.59201474765	4.7848083298
0	2680529	65.594499925355	4.787007793219
0	2775779	67.879491542737	3.398902453434
0	2775803	67.880135235778	3.399252028828
0	2775880	67.881618810617	3.400147368373
0	2775905	67.882115846158	3.400350286267
0	2812238	68.723436992351	0.010691040778994
0	2812611	68.731332877314	0.021011168165998
0	2812639	68.731770949335	0.021146209884009
0	2813195	68.743987835386	0.032454005025997
0	2813259	68.74555820447	0.032509222594996
0	2813275	68.746055240011	0.032703227833011
0	2814168	68.766405604878	0.052750562397009
0	2814607	68.777170471749	0.064727550480001
0	2868941	70.122787716511	1.411859946757
0	2868968	70.123431409552	1.412200609495
0	2869023	70.124573182237	1.412736321574
0	2869054	70.125338049109	1.413198158143
0	2979880	72.96980062829	0.010691040779008
0	2980197	72.977696513253	0.021011168165998
0	2980214	72.978134585274	0.021146209883995
0	2980696	72.990103658591	0.032206192291994
0	2980779	72.991921840409	0.032509222594996
0	2980792	72.99241887595	0.032703227832997
0	2981464	73.009879242104	0.052587836410993
0	2981487	73.010522935145	0.052928499149004
0	2981563	73.012309850883	0.054109354280996
0	2981595	73.012806886424	0.054303359518997
0	2981610	73.013303921965	0.053285243545005
0	2981935	73.022354856714	0.06354829950601
0	3126854	77.011248015413	0.042588880514003
0	3127291	77.021894921006	0.052965515837002
0	3127327	77.022659787878	0.053460112438998
0	3128095	77.041805834951	0.073957510861987
0	3128829	77.058507624431	0.09011875980201
0	3129099	77.06503912405	0.098812421581002
0	3129127	77.065651657586	0.099154684847008
0	3129210	77.0673193927	0.100011609151
0	3130116	77.088315398418	0.121548155409
0	3130185	77.089830800196	0.122252746377
0	3131950	77.131848203345	0.163729608986
0	3134426	77.188770898322	0.22173338504301
0	3304777	81.232058822003	0.042588880514003
0	3305217	81.242705727596	0.052965515837002
0	3305297	81.24423546134	0.054224979311002
0	3306063	81.262616641541	0.073957510862002
0	3310892	81.385427905653	0.196228234434
0	3311170	81.391959405272	0.20492189621301
0	3311188	81.392571938808	0.205264159479
0	3311305	81.395004540794	0.20688595065501
0	3312173	81.416460746712	0.22888269711301
0	3312255	81.418588682026	0.23019982161701
0	3313981	81.458604955775	0.26967555482601
0	3320916	81.632072551384	0.44422423151499

