version 2
run Net10-0-20190310-11:57:15-21792
attr configname Net10
attr datetime 20190310-11:57:15
attr experiment Net10
attr inifile omnetpp.ini
attr iterationvars ""
attr iterationvarsf ""
attr measurement ""
attr network mogp.networks.Net10
attr processid 21792
attr repetition 0
attr replication #0
attr resultdir results
attr runnumber 0
attr seedset 0
param **.eventStorage.packetLength "1024 byte"
param **.node[*].operator[*].packetLength "1024 byte"

vector 0 Net10.eventStorage "End-to-End Delay" ETV
0	161	5	0
0	162	5	0
0	163	5	0
0	164	5	0
0	165	5	0
0	166	5	0
0	167	5	0
0	168	5	0
0	169	5	0
0	170	5	0
0	171	5	0
0	172	5	0
0	29898	6.031926731005	0.031656461735
0	29921	6.032539264541	0.032268995271
0	29934	6.032778515652	0.032508246382
0	29951	6.033151798077	0.032881528807001
0	29960	6.033366689793	0.033096420523
0	29974	6.033764331613	0.033494062343
0	29997	6.034376865149	0.034106595879
0	30003	6.034543038075	0.034272768805001
0	30019	6.034989398685	0.034719129415
0	30039	6.035601932221	0.035331662951
0	30056	6.036214465757	0.035944196487001
0	30535	6.053608779672	0.053338510402
0	59016	7.032364802026	0.031824263486
0	59047	7.032977335562	0.032436797022
0	59052	7.033216586673	0.032676048132999
0	59071	7.033589869098	0.033049330558
0	59079	7.033804760814	0.033264222274
0	59092	7.034202402634	0.033661864093999
0	59104	7.034530802736	0.033990264195999
0	59116	7.03481493617	0.03427439763
0	59139	7.035427469706	0.034886931166
0	59167	7.036040003242	0.035499464702
0	59185	7.036652536778	0.036111998238
0	59686	7.05352399221	0.05298345367
0	88178	8.032299467794	0.031488659983999
0	88205	8.03291200133	0.032101193520001
0	88213	8.033151252441	0.032340444631
0	88230	8.033524534866	0.032713727056001
0	88243	8.033739426582	0.032928618772001
0	88259	8.034137068402	0.033326260592
0	88272	8.034465468504	0.033654660693999
0	88291	8.034749601938	0.033938794128
0	88317	8.035362135474	0.034551327663999
0	88346	8.03597466901	0.035163861200001
0	88364	8.036587202546	0.035776394736001
0	88898	8.053450570722	0.052639762911999
0	118828	9.035077800657	0.034023090508001
0	118848	9.035831344879	0.034776634730001
0	118875	9.036584889101	0.035530178952001
0	118907	9.037338433323	0.036283723174002
0	118928	9.037950966859	0.036896256710001
0	118944	9.03854725842	0.037492548271
0	118952	9.038563500395	0.037508790246001
0	118990	9.039723606702	0.038668896553
0	119001	9.039885833878	0.038831123729
0	119032	9.04076197792	0.039707267771
0	119038	9.040899954984	0.039845244835
0	119528	9.058260499365	0.057205789216001
0	143189	10.032981441154	0.031593398671999
0	143210	10.03359397469	0.032205932207999
0	143223	10.033833225801	0.032445183319
0	143233	10.034206508226	0.032818465743999
0	143248	10.034421399942	0.033033357459999
0	143259	10.034819041762	0.03343099928
0	143271	10.035147441864	0.033759399381999
0	143282	10.035431575298	0.034043532816
0	143305	10.036044108834	0.034656066351999
0	143321	10.03665664237	0.035268599887999
0	143344	10.037269175906	0.035881133423999
0	143736	10.054290415071	0.052902372588999
0	166720	11.033210034799	0.031488659983999
0	166749	11.034061819446	0.032340444631
0	166760	11.034435101871	0.032713727055999
0	166772	11.034649993587	0.032928618771999
0	166781	11.035047635407	0.033326260592
0	166797	11.035376035509	0.033654660693999
0	166809	11.035660168943	0.033938794128
0	166824	11.036272702479	0.034551327663999
0	166839	11.036885236015	0.035163861199999
0	166855	11.037497769551	0.035776394735999
0	166879	11.038110303087	0.036388928272
0	167288	11.054296283677	0.052574908861999
0	196040	12.033530624085	0.031809248469999
0	196058	12.034143157621	0.032421782005999
0	196083	12.034755691157	0.033034315542
0	196095	12.034842168359	0.033120792743999
0	196112	12.035368224693	0.033646849078
0	196125	12.0354303425	0.033708966884999
0	196141	12.035980758229	0.034259382614
0	196147	12.036018516641	0.034297141026
0	196166	12.036593291765	0.034871916149999
0	196192	12.037205825301	0.035484449685999
0	196214	12.037818358837	0.036096983221999
0	196681	12.054842168375	0.05312079276
0	224573	13.034143158421	0.032421782005999
0	224595	13.034755691957	0.033034315541999
0	224604	13.034842169159	0.033120792743999
0	224622	13.035368225493	0.033646849078
0	224636	13.0354303433	0.033708966884999
0	224653	13.035980759029	0.034259382614
0	224666	13.036134697616	0.034413321200999
0	224677	13.036593292565	0.034871916149999
0	224705	13.037205826101	0.035484449685999
0	224736	13.037818359637	0.036096983221999
0	224756	13.038430893173	0.036709516758
0	225257	13.054842169175	0.05312079276
0	253224	14.033584490514	0.031863113299
0	253250	14.034289286192	0.032567908976999
0	253270	14.034901819728	0.033180442512998
0	253292	14.035141070839	0.033419693623999
0	253301	14.035514353264	0.033792976049
0	253330	14.0361268868	0.034405509585
0	253342	14.036317419121	0.034596041905999
0	253361	14.036739420336	0.035018043120999
0	253367	14.036905593262	0.035184216047
0	253383	14.037351953872	0.035630576656999
0	253405	14.037964487408	0.036243110192999
0	253858	14.054650057136	0.052928679920999
0	279406	15.023427213671	0.021411719008999
0	279423	15.023617269529	0.021601774866999
0	279442	15.024230178998	0.022214684335999
0	279478	15.024793617811	0.022778123148999
0	279509	15.025415355835	0.023399861172999
0	279762	15.033942445969	0.031926951307
0	279800	15.034984397184	0.032968902521999
0	279831	15.035737941406	0.033722446743999
0	279851	15.036491485628	0.034475990966
0	280065	15.044191621978	0.042176127315999
0	280105	15.045266316287	0.043250821625
0	280395	15.055256008369	0.053240513706999
0	306667	16.02331549653	0.021300000867999
0	306713	16.024118461857	0.022102966195
0	306720	16.024222190239	0.022206694577001
0	306779	16.025303638694	0.023288143031998
0	306791	16.025398538521	0.023383042858999
0	307105	16.034547366679	0.032531871017
0	307119	16.034872680043	0.032857184380997
0	307148	16.035626224265	0.033610728602998
0	307173	16.036379768487	0.034364272824998
0	307426	16.044343980713	0.042328485050998
0	307479	16.045871236997	0.043855741334998
0	307777	16.055404128685	0.053388633022998
0	335022	17.02331549753	0.021300000867999
0	335039	17.023617271529	0.021601774866998
0	335056	17.024118462857	0.022102966195
0	335094	17.024793619811	0.022778123148999
0	335122	17.025303639694	0.023288143031998
0	335373	17.033942447969	0.031926951307
0	335413	17.034872681043	0.032857184380997
0	335439	17.035626225265	0.033610728602998
0	335458	17.036379769487	0.034364272824998
0	335676	17.044669675949	0.042654179286998
0	335700	17.045266318287	0.043250821624998
0	335995	17.056226859462	0.0542113628
0	363198	18.023378033723	0.021362536060998
0	363248	18.02418099905	0.022165501387999
0	363268	18.024524652094	0.022509154431997
0	363309	18.025366175887	0.023350678225
0	363330	18.025701000376	0.023685502713999
0	363652	18.034849828534	0.032834330871999
0	363686	18.035526279042	0.033510781379999
0	363713	18.036138812578	0.034123314915998
0	363757	18.03736387965	0.035348381987998
0	364028	18.045938508157	0.043923010495
0	364039	18.046173698852	0.044158201189997
0	364380	18.057240564778	0.055225067115998
0	398822	19.02331549953	0.021300000867999
0	398863	19.024118464857	0.022102966195
0	398927	19.025303641694	0.023288143031998
0	399327	19.034872683043	0.032857184380997
0	399388	19.036097750115	0.034082251453
0	399420	19.036860825207	0.034845326545
0	399798	19.046179134416	0.044163635754
0	400237	19.057736317929	0.055720819266998
0	406373	19.211317563654	0.209302064992
0	406430	19.212493911936	0.210478413274
0	406786	19.221642740094	0.219627241432
0	407245	19.232966610412	0.23095111175
0	437152	20.013706069702	0.011690570039999
0	437580	20.023762556212	0.021747056549998
0	437968	20.033792320591	0.031776820929
0	437983	20.034281181834	0.032265682172
0	437988	20.034289356132	0.032273856469999
0	438003	20.034500146209	0.032484646546997
0	438062	20.035457530116	0.033442030453998
0	438432	20.045339913724	0.043324414061999
0	438781	20.054499269924	0.052483770262
0	438840	20.055807374411	0.053791874748999
0	438886	20.056919217068	0.054903717405999
0	439247	20.066512060412	0.064496560749998
0	471239	21.013506607285	0.011491106622998
0	471593	21.023066058254	0.021050557591998
0	472038	21.034078035877	0.032062535214997
0	472054	21.034500147209	0.032484646546997
0	472062	21.034575071418	0.032559570756
0	472528	21.04562562901	0.043610128348
0	472955	21.055776360924	0.053760860261999
0	472982	21.056531137319	0.054515636656998
0	480867	21.242203100306	0.240187599644
0	480927	21.243379448588	0.241363947926
0	481769	21.262848928094	0.260833427432
0	482248	21.274433978884	0.272418478222
0	510626	22.013220893999	0.011205392336997
0	511051	22.023277380509	0.021261878847
0	511493	22.03381554458	0.031800042918
0	511508	22.034281183834	0.032265682172
0	511516	22.034312580121	0.032297078458999
0	511525	22.034500148209	0.032484646546997
0	511575	22.035457532116	0.033442030453998
0	512021	22.046357208795	0.044341707133
0	512317	22.054499271924	0.052483770261997
0	512395	22.056419909947	0.054404408284999
0	512430	22.057296053989	0.055280552326998
0	512757	22.066512062412	0.064496560749998
0	546578	23.013009573744	0.010994071081999
0	547082	23.023066060254	0.021050557591998
0	547610	23.033816670594	0.031801167931999
0	547636	23.034297930403	0.032282427740999
0	547642	23.034313706135	0.032298203472997
0	547681	23.034928155152	0.032912652489998
0	547715	23.035474278685	0.033458776023
0	548190	23.045364263727	0.043348761064998
0	548641	23.054996516008	0.052981013345999
0	548706	23.056245425033	0.054229922370997
0	548754	23.057121569075	0.055106066413
0	549198	23.066528808981	0.064513306319
0	587978	24.013750511624	0.011491106623001
0	588388	24.023309962593	0.021050557592002
0	588843	24.033777003715	0.031517598714
0	588898	24.034771074797	0.032511669796001
0	588911	24.034869358875	0.032609953874001
0	588916	24.034888488273	0.032629083272003
0	588977	24.036045707157	0.033786302156003
0	589361	24.044827561307	0.042568156306
0	589841	24.055362583806	0.053103178804999
0	589884	24.056198931523	0.053939526522001
0	589932	24.057075075565	0.054815670564
0	590340	24.067100237453	0.064840832452003
0	629389	25.034087408583	0.031584101242998
0	629413	25.034327320982	0.031824013642002
0	629451	25.035024354874	0.032521047534001
0	629499	25.035742730321	0.033239422981001
0	629535	25.036461105768	0.033957798427998
0	630020	25.046575521694	0.044072214353999
0	630506	25.056434428655	0.053931121314999
0	630544	25.057078121696	0.054574814355998
0	630574	25.057873660853	0.055370353512998
0	630997	25.066190526215	0.063687218875
0	631675	25.079980768526	0.077477461186
0	633085	25.110675662806	0.108172355466
0	670055	26.034331310922	0.031584101242998
0	670095	26.034971013923	0.032223804243998
0	670103	26.035074087631	0.032326877951999
0	670151	26.035792463078	0.033045253398999
0	670182	26.036510838525	0.033763628846
0	670607	26.047219214635	0.044472004955999
0	670982	26.056675579581	0.053928369902
0	671004	26.057319272622	0.054572062942999
0	671055	26.058517353794	0.055770144114998
0	671357	26.066008731261	0.063261521582
0	671858	26.079699528242	0.076952318562999
0	673040	26.110725395563	0.107978185884
0	711923	27.034971013823	0.031979901805002
0	711939	27.035193301674	0.032202189656001
0	711947	27.03531798997	0.032326877952002
0	711978	27.036036365417	0.033045253399003
0	712013	27.036754740864	0.033763628846
0	712416	27.047219214535	0.044228102517
0	712766	27.056846320751	0.053855208733001
0	712791	27.057490013792	0.054498901774
0	712833	27.058517353694	0.055526241676002
0	713133	27.066635289283	0.063644177265001
0	713586	27.079699528142	0.076708416124003
0	714633	27.110969297902	0.107978185884
0	751266	28.035305622658	0.032020393193001
0	751321	28.036102328083	0.032817098618001
0	751742	28.044168596446	0.040883366980999
0	751769	28.044886971893	0.041601742428
0	751803	28.04560534734	0.042320117875001
0	751982	28.048994221836	0.045708992371001
0	752403	28.0579202902	0.054635060734999
0	752468	28.059094279823	0.055809050358
0	752525	28.060292360995	0.05700713153
0	753271	28.07556551443	0.072280284965
0	753536	28.081353233612	0.078068004146999
0	755283	28.119953009977	0.116667780512
0	796261	29.035481864044	0.031902517132
0	796266	29.035514276048	0.031934929136
0	796916	29.048406169801	0.044826822889
0	797367	29.057862534747	0.054283187835001
0	797403	29.058506227788	0.054926880876
0	797472	29.05970430896	0.056124962048003
0	798435	29.080187393773	0.076608046861001
0	801513	29.141127904015	0.137548557103
0	801552	29.141846279462	0.13826693255
0	801586	29.142564654909	0.138985307997
0	803188	29.17242130977	0.168841962858
0	805602	29.21706922107	0.213489874158
0	842598	30.025173465227	0.021300000867999
0	842643	30.025976430554	0.022102966195
0	842699	30.027161607391	0.023288143032001
0	842813	30.029194380466	0.025320916106999
0	842869	30.030370728748	0.026497264389
0	843178	30.03673064874	0.032857184381001
0	843213	30.037484192962	0.033610728603001
0	843252	30.038237737184	0.034364272824998
0	843321	30.039519556906	0.035646092547001
0	843622	30.046049591675	0.042176127316001
0	843846	30.050843427224	0.046969962864999
0	844144	30.057138276308	0.053264811948999
0	888226	31.025467582674	0.021300000868003
0	888273	31.026270548001	0.022102966195
0	888337	31.027455724838	0.023288143032001
0	888555	31.032031290871	0.027863709065002
0	888616	31.033207639153	0.029040057347
0	888799	31.037024766187	0.032857184381001
0	888864	31.038249833259	0.034082251453
0	888894	31.038862366795	0.034694784989
0	889054	31.042356467311	0.038188885505001
0	889229	31.046343709122	0.042176127316001
0	889573	31.053680337629	0.049512755823002
0	889735	31.057408095513	0.053240513707003
0	935524	32.025761700121	0.021300000868003
0	935569	32.026357224849	0.021895525596001
0	935584	32.026564665448	0.022102966195
0	935642	32.027533573131	0.023071873878003
0	935657	32.027749842285	0.023288143031998
0	936065	32.036682401289	0.032220702036
0	936110	32.037504948141	0.033043248887999
0	936146	32.038117481677	0.033655782423999
0	936174	32.038825972078	0.034364272825002
0	936532	32.046925735317	0.042464036063997
0	936601	32.04811010736	0.043648408106996
0	937020	32.057985883289	0.053524184036
0	979960	33.026064730324	0.021300000868003
0	979992	33.026651648161	0.021886918705
0	980000	33.026867695651	0.022102966195
0	980056	33.027827996443	0.023063266987002
0	980071	33.028052872488	0.023288143031998
0	980403	33.036976824601	0.032212095144999
0	980441	33.037621913837	0.032857184381001
0	980470	33.038375458059	0.033610728603001
0	980512	33.039129002281	0.034364272825002
0	980813	33.047337786815	0.042573057359
0	980849	33.048300694919	0.043535965463001
0	981256	33.059392005869	0.054627276413001
0	1013829	34.026367760527	0.021300000868003
0	1013861	34.027170725854	0.022102966195
0	1013918	34.028355902691	0.023288143031998
0	1014270	34.03792494404	0.032857184381001
0	1014299	34.038678488262	0.033610728603001
0	1014328	34.039432032484	0.034364272825002
0	1014603	34.047243886975	0.042176127315997
0	1015002	34.058801070488	0.053733310829003
0	1016171	34.093527967522	0.088460207863001
0	1016217	34.094704315804	0.089636556145003
0	1016514	34.103853143962	0.098785384303
0	1016887	34.11517701428	0.110109254621
0	1049857	35.016861896485	0.011491106622998
0	1050696	35.037245225811	0.031874435949
0	1050755	35.038463442275	0.033092652413004
0	1050863	35.041038214439	0.035667424576999
0	1050892	35.04168190748	0.036311117617998
0	1051105	35.047396471943	0.042025682080997
0	1051192	35.049607870542	0.044237080679999
0	1051223	35.050251563583	0.044880773720998
0	1051249	35.050895256624	0.045524466762004
0	1051500	35.058486073061	0.053115283198998
0	1051505	35.058615582616	0.053244792754001
0	1051519	35.058983108602	0.053612318740001
0	1084452	36.017358931926	0.011685111860999
0	1085240	36.037548256014	0.031874435949
0	1085285	36.038463442175	0.032789622110002
0	1085389	36.041038214339	0.035364394273998
0	1085417	36.04168190738	0.036008087315004
0	1085634	36.047699502146	0.042025682081004
0	1085716	36.049607870442	0.043934050376997
0	1085743	36.050251563483	0.044577743418003
0	1085770	36.050895256524	0.045221436459002
0	1086036	36.058850038545	0.053176218479997
0	1086042	36.058918612819	0.053244792754001
0	1086062	36.059347074086	0.053673254021
0	1120314	37.017055901523	0.011079051255003
0	1121241	37.038741013382	0.032764163114003
0	1121605	37.048002532349	0.042025682081004
0	1122049	37.059092133467	0.053115283198998
0	1122060	37.059221643022	0.053244792754001
0	1122540	37.070202400907	0.064225550639001
0	1122688	37.073420866112	0.067444015844004
0	1122718	37.074064559153	0.068087708885002
0	1123015	37.081346829174	0.075369978906004
0	1123035	37.081990522215	0.076013671947003
0	1123066	37.082634215256	0.076657364988002
0	1123401	37.091298325758	0.085321475489998
0	1154630	38.017419867007	0.011139986536001
0	1155490	38.03815431642	0.031874435949
0	1155539	38.039087389046	0.032807508574997
0	1155665	38.042028259751	0.035748379280001
0	1155695	38.042671952792	0.036392072321
0	1155909	38.048305562552	0.042025682081004
0	1155999	38.050231817313	0.043951936841999
0	1156024	38.050875510354	0.044595629882998
0	1156048	38.051519203395	0.045239322923997
0	1156324	38.059191434688	0.052911554216998
0	1156335	38.059524673225	0.053244792754001
0	1156358	38.05971386882	0.053433988348999
0	1193521	39.017576981756	0.010994071082003
0	1194403	39.038457346623	0.031874435949
0	1194440	39.039105275411	0.032522364736998
0	1194595	39.042323740616	0.035740829942
0	1194621	39.042967433657	0.036384522982999
0	1194854	39.048720907596	0.042137996922001
0	1194927	39.050249703678	0.043666793004
0	1194951	39.050893396719	0.044310486044999
0	1194975	39.05153708976	0.044954179085998
0	1195269	39.059347293133	0.052764382459003
0	1195299	39.059869727265	0.053286816590997
0	1195310	39.059940018269	0.053357107594998
0	1232270	40.038494443382	0.031608502505001
0	1232275	40.038510075556	0.031624134678999
0	1232300	40.039122609092	0.032236668214999
0	1232306	40.039212818829	0.032326877952002
0	1232337	40.039735142628	0.032849201750999
0	1232388	40.040649569723	0.033763628846003
0	1233192	40.060773800437	0.05388785956
0	1233247	40.062210551331	0.055324610454001
0	1235413	40.116235554813	0.109349613936
0	1236020	40.130792192613	0.123906251736
0	1236330	40.138365547056	0.131479606179
0	1236390	40.140092134875	0.133206193998
0	1271328	41.038797473585	0.031608502505001
0	1271334	41.038813105759	0.031624134678999
0	1271369	41.039425639295	0.032236668214999
0	1271378	41.039515849032	0.032326877952002
0	1271400	41.040038172831	0.032849201750999
0	1271483	41.041670975373	0.034482004293004
0	1272285	41.06107683064	0.05388785956
0	1272389	41.063231956981	0.056042985901001
0	1272660	41.070486844956	0.063297873876003
0	1273213	41.084399789715	0.077210818635002
0	1273550	41.092616837199	0.085427866118998
0	1273594	41.093467690369	0.086278719288998
0	1308984	42.039116135962	0.031624134678999
0	1309008	42.039515848932	0.032023847649
0	1309016	42.039728669498	0.032236668214999
0	1309037	42.040234224379	0.032742223096001
0	1309046	42.040341203034	0.032849201750999
0	1309105	42.041670975273	0.034178973990002
0	1309791	42.061795205987	0.054303204703999
0	1309835	42.063231956881	0.055739955598
0	1314401	42.190410182268	0.182918180985
0	1314941	42.204966820068	0.197474818785
0	1315224	42.212819407395	0.205327406112
0	1315265	42.213827560593	0.20633555931
0	1348187	43.039419166165	0.031624134678999
0	1348200	43.039515848832	0.031720817345999
0	1348226	43.040234224279	0.032439192792999
0	1348238	43.040333592189	0.032538560703003
0	1348282	43.041248018213	0.033452986726999
0	1348307	43.041670975173	0.033875943687001
0	1349221	43.061795205887	0.054000174401004
0	1349291	43.063496912227	0.055701880741005
0	1349899	43.077724715982	0.069929684496003
0	1350516	43.092281353782	0.084486322296002
0	1350845	43.100412532091	0.092617500605002
0	1350876	43.101142094307	0.093347062821003
0	1388922	44.039706564194	0.031608502505001
0	1388927	44.039722196368	0.031624134678999
0	1388966	44.040334729904	0.032236668214999
0	1388971	44.040424939641	0.032326877952002
0	1389034	44.041559796976	0.033461735286998
0	1389047	44.041861690535	0.033763628846003
0	1389980	44.062246475259	0.054148413570005
0	1390063	44.063779513239	0.055681451550001
0	1390425	44.071681079403	0.063583017714002
0	1391011	44.084449283033	0.076351221344005
0	1391430	44.093167378605	0.085069316915998
0	1391461	44.093811071646	0.085713009957004
0	1427038	45.008401091892	0
0	1427462	45.018898127433	0.010497035541
0	1427501	45.019395162974	0.010994071082003
0	1427528	45.019850349673	0.011449257781003
0	1427562	45.020288421694	0.011887329802001
0	1427964	45.0297784923	0.021377400407999
0	1428389	45.039850332079	0.031449240187001
0	1428479	45.041189765597	0.032788673704999
0	1428853	45.050652677364	0.042251585472002
0	1428950	45.052735991536	0.044334899643999
0	1429323	45.061535699551	0.053134607659004
0	1429328	45.061613183517	0.053212091624999
0	1467945	46.008704122095	0
0	1468378	46.019201157636	0.010497035541
0	1468416	46.019698193177	0.010994071082003
0	1468449	46.020456410179	0.011752288084004
0	1468475	46.0208944822	0.012190360105002
0	1468874	46.030100941293	0.021396819198003
0	1469307	46.040018320564	0.031314198469005
0	1469410	46.041852028224	0.033147906129003
0	1469809	46.051371052711	0.042666930616001
0	1469879	46.052735991436	0.044031869341005
0	1470239	46.061703688036	0.052999565941001
0	1470282	46.062610569163	0.053906447068002
0	1508242	47.009007152298	0
0	1508686	47.019504187839	0.010497035541
0	1508727	47.02000122338	0.010994071082003
0	1508756	47.020456410079	0.011449257781003
0	1508781	47.0208944821	0.011887329802001
0	1509209	47.030384552706	0.021377400407999
0	1509696	47.040456392485	0.031449240187001
0	1509780	47.041852028124	0.032844875826001
0	1510223	47.051371052611	0.042363900312999
0	1510295	47.052753877801	0.043746725503006
0	1510738	47.062141759957	0.053134607659004
0	1510747	47.062331558764	0.053324406466004
0	1552578	48.009007153298	0
0	1552983	48.019504188839	0.010497035541
0	1553019	48.02000122438	0.010994071081996
0	1553032	48.020321369361	0.011314216062999
0	1553056	48.020759441382	0.011752288083997
0	1553477	48.030470771452	0.021463618154002
0	1553929	48.040934355528	0.031927202230001
0	1553995	48.042120843249	0.033113689951001
0	1554379	48.051314372624	0.042307219325998
0	1554482	48.053078895047	0.044071741749001
0	1554862	48.062006719239	0.052999565941001
0	1554898	48.06251487633	0.053507723031998
0	1591191	49.009007154298	0
0	1591609	49.019738067485	0.010730913187004
0	1591645	49.020235103026	0.011227948727999
0	1591650	49.020321370361	0.011314216062999
0	1591669	49.020759442382	0.011752288084004
0	1592054	49.030384554706	0.021377400407999
0	1592431	49.040321352767	0.031314198469005
0	1592510	49.041795828003	0.032788673704999
0	1592863	49.050989357378	0.041982203080003
0	1592967	49.053342053942	0.044334899643999
0	1593278	49.062006720239	0.052999565941001
0	1593283	49.06201560354	0.053008449242
0	1631904	50.030541033812	0.021533878513999
0	1631916	50.030608930165	0.021601774867001
0	1631954	50.031343999139	0.022336843840996
0	1631997	50.031785278447	0.022778123148996
0	1632046	50.032529175976	0.023522020678001
0	1632489	50.040934106605	0.031926951307
0	1632550	50.042098217325	0.033091062026998
0	1632593	50.042851761547	0.033844606248998
0	1632647	50.043605305769	0.034598150470998
0	1633084	50.052551445789	0.043544290490999
0	1633124	50.053404668698	0.0443975134
0	1633670	50.064961852211	0.055954696912998
0	1671102	51.030307157166	0.021300000868003
0	1671122	51.030670789516	0.021663633218004
0	1671151	51.031110122493	0.022102966195
0	1671189	51.031847137798	0.022839981499999
0	1671225	51.03229529933	0.023288143032005
0	1671584	51.040995965956	0.031988809658003
0	1671629	51.041864340679	0.032857184381001
0	1671672	51.042617884901	0.033610728603001
0	1671720	51.04391643392	0.034909277621999
0	1672028	51.051183283614	0.042176127316004
0	1672093	51.052412005596	0.043404849298
0	1672506	51.062247670005	0.053240513707003
0	1709622	52.030307158166	0.021300000867996
0	1709663	52.030933948411	0.021926791112996
0	1709668	52.031110123493	0.022102966195
0	1709730	52.032110296693	0.023103139394998
0	1709745	52.03229530033	0.023288143031998
0	1710140	52.041259124851	0.032251967552995
0	1710176	52.041864341679	0.032857184381001
0	1710214	52.042617885901	0.033610728603001
0	1710249	52.043371430123	0.034364272824995
0	1710583	52.051593667412	0.042586510113999
0	1710629	52.052582995169	0.043575837870996
0	1711012	52.062653815384	0.053646658085995
0	1750341	53.030627689555	0.021620531257
0	1750375	53.031430654882	0.022423496584004
0	1750391	53.031583981903	0.022576823605
0	1750444	53.032615831719	0.023608673421002
0	1750462	53.032760330185	0.023753171887002
0	1750840	53.041909158343	0.032902000044999
0	1750857	53.042184873068	0.033177714769998
0	1750896	53.04293841729	0.033931258991998
0	1750955	53.044173015232	0.035165856934
0	1751332	53.053233028661	0.044225870363
0	1751358	53.053988359982	0.044981201684003
0	1751848	53.0660216991	0.057014540802001
0	1789008	54.030608934165	0.021601774867001
0	1789029	54.031184110252	0.022176950953998
0	1789061	54.031785282447	0.022778123148996
0	1789078	54.031987075579	0.022979916280995
0	1789130	54.033172252416	0.024165093118
0	1789449	54.040934110605	0.031926951307
0	1789532	54.042741293765	0.033734134466997
0	1789573	54.043966360837	0.034959201538996
0	1789599	54.044578894373	0.035571735074996
0	1789860	54.051183286614	0.042176127315997
0	1789922	54.052479677769	0.043472518470999
0	1790286	54.062333890751	0.053326731452998
0	1823569	55.02000123138	0.010994071082003
0	1824458	55.040624309556	0.031617149258004
0	1824545	55.04237659764	0.033369437342003
0	1825324	55.061619325733	0.052612165435001
0	1825348	55.062080027523	0.053072867224998
0	1825368	55.06244479826	0.053437637961999
0	1825399	55.062983239971	0.053976079672999
0	1825465	55.064589170625	0.055582010327001
0	1826021	55.078906752326	0.069899592028001
0	1826050	55.079494926467	0.070487766169002
0	1827269	55.112012916246	0.103005755948
0	1828909	55.154949628539	0.145942468241
0	1868891	56.040624311556	0.031617149258004
0	1868937	56.041582783765	0.032575621467004
0	1868969	56.04237659964	0.033369437342003
0	1869819	56.061938510025	0.052931347727004
0	1869849	56.06244480026	0.053437637961999
0	1870692	56.083200878118	0.074193715820002
0	1870747	56.084564792356	0.075557630058
0	1870794	56.085558863438	0.076551701139998
0	1873461	56.15173638551	0.142729223212
0	1873495	56.152324559651	0.143317397353
0	1874788	56.184484356261	0.175477193963
0	1875383	56.199546902955	0.190539740657
0	1903526	57.020483446626	0.011476284327998
0	1903885	57.030131148278	0.021123985980005
0	1903926	57.030719322419	0.021712160120998
0	1904307	57.040624311556	0.031617149258004
0	1904385	57.04237659964	0.033369437342003
0	1905094	57.062101540979	0.053094378681003
0	1905117	57.06244480026	0.053437637961999
0	1905125	57.062562242769	0.053555080471
0	1905138	57.062879119029	0.053871956731001
0	1905162	57.06352281207	0.054515649772
0	1905209	57.064875543122	0.055868380824002
0	1905888	57.083893113258	0.074885950960002
0	1937104	58.020185768921	0.011178606622998
0	1937515	58.030131148278	0.021123985980005
0	1937557	58.030719322419	0.021712160120998
0	1937956	58.040624311556	0.031617149258004
0	1938038	58.04237659964	0.033369437342003
0	1938801	58.061803863274	0.052796700976003
0	1938815	58.062264565064	0.053257402766
0	1938831	58.06244480026	0.053437637961999
0	1938855	58.062879119029	0.053871956731001
0	1938886	58.06352281207	0.054515649772
0	1938925	58.064166505111	0.055159342812999
0	1939715	58.083893113258	0.074885950960002
0	1973091	59.020185768921	0.011178606622998
0	1973575	59.030333170701	0.021326008403001
0	1973604	59.030921344842	0.021914182544002
0	1974054	59.040624311556	0.031617149258004
0	1974156	59.04237659964	0.033369437342003
0	1975003	59.061803863274	0.052796700976003
0	1975033	59.062423768063	0.053416605765001
0	1975040	59.06244480026	0.053437637961999
0	1975075	59.063081141452	0.054073979153998
0	1975105	59.063724834493	0.054717672195004
0	1975137	59.064368527534	0.055361365236003
0	1975984	59.084910225372	0.075903063074001
0	2014909	60.032055554717	0.022778123148996
0	2014974	60.033231902999	0.023954471430997
0	2014996	60.03382007714	0.024542645571998
0	2015312	60.041053735824	0.031776304255999
0	2015319	60.041140544867	0.031863113298996
0	2015382	60.041894089089	0.032616657520997
0	2015888	60.053515323665	0.044237892096994
0	2016263	60.062718661468	0.053441229899995
0	2017167	60.083403766007	0.074126334438994
0	2017192	60.084091180444	0.074813748875997
0	2017236	60.084840516901	0.075563085332995
0	2017263	60.085558892348	0.076281460779995
0	2056229	61.032325823987	0.022778123149003
0	2056298	61.033502172269	0.023954471430997
0	2056329	61.03409034641	0.024542645571998
0	2056628	61.041156203343	0.031608502505001
0	2056663	61.041637579408	0.032089878569998
0	2056714	61.04239112363	0.032843422791998
0	2057198	61.053785592935	0.044237892097001
0	2057574	61.062788214545	0.053240513707003
0	2058453	61.083215896944	0.073668196105999
0	2058509	61.084193647963	0.074645947124999
0	2058537	61.084652647838	0.075104947
0	2058573	61.085371023285	0.075823322447
0	2097393	62.0332795346	0.023461564492003
0	2097462	62.034455882882	0.024637912774004
0	2097491	62.035044057023	0.025226086915005
0	2097769	62.041594274364	0.031776304256006
0	2097781	62.041681083407	0.031863113299003
0	2097826	62.042434627629	0.032616657521004
0	2098407	62.054739303548	0.044921333440001
0	2098764	62.063259200008	0.053441229900002
0	2099609	62.084092117036	0.074274146928005
0	2099628	62.084631718984	0.074813748876004
0	2099668	62.08552886793	0.075710897822006
0	2099700	62.086247243377	0.076429273269007
0	2139132	63.033502170269	0.023413930890996
0	2139222	63.035266692692	0.025178453313998
0	2139242	63.035854866833	0.025766627454999
0	2139499	63.041696741883	0.031608502505001
0	2139523	63.041951352677	0.031863113298996
0	2139574	63.042704896899	0.032616657520997
0	2140189	63.05510186593	0.045013626551999
0	2140568	63.063328753085	0.053240513706996
0	2141550	63.084314752705	0.074226513326998
0	2141572	63.084734186503	0.074645947124999
0	2141623	63.085751503599	0.075663264220999
0	2141667	63.086469879046	0.076381639668
0	2176253	64.041967011153	0.031608502505009
0	2176270	64.042221621947	0.031863113298996
0	2176313	64.042975166169	0.032616657521004
0	2177214	64.063895128072	0.053536619424008
0	2178063	64.085004455773	0.074645947125006
0	2179262	64.11593636801	0.105577859362
0	2179318	64.117112716292	0.106754207644
0	2179343	64.117700890433	0.107342381785
0	2180194	64.137536063671	0.127177555023
0	2181383	64.166748950446	0.156390441798
0	2181408	64.167467325893	0.157108817245
0	2181438	64.16828743609	0.157928927442
0	2217106	65.031952626963	0.02130000086801
0	2217143	65.032548457456	0.021895831361007
0	2217155	65.03275559229	0.022102966195007
0	2217212	65.033724805738	0.023072179643009
0	2217230	65.033940769127	0.023288143032005
0	2217598	65.042873633896	0.032221007800999
0	2217620	65.043509810476	0.032857184381001
0	2217661	65.044263354698	0.033610728603009
0	2217717	65.04548842177	0.034835795675008
0	2218006	65.052828753411	0.042176127315997
0	2218067	65.054394113283	0.043741487188001
0	2218446	65.063917438044	0.053264811949006
0	2258712	66.032163949218	0.021511322123004
0	2258750	66.032966914545	0.022314287450001
0	2258808	66.034152091382	0.023499464286999
0	2258848	66.034890733586	0.024238106490998
0	2258918	66.036067081868	0.025414454772999
0	2259238	66.043721132731	0.033068505635995
0	2259274	66.044474676953	0.033822049858003
0	2259308	66.045215910026	0.034563282931003
0	2259317	66.045228221175	0.034575594079996
0	2259650	66.053306806382	0.042654179286998
0	2259819	66.057078603388	0.046425976292994
0	2260114	66.064366954354	0.053714327259001
0	2293713	67.032163950218	0.02151132212299
0	2293752	67.032966915545	0.022314287450001
0	2293812	67.034152092382	0.023499464286999
0	2294263	67.043721133731	0.033068505635995
0	2294295	67.044474677953	0.033822049858003
0	2294330	67.045228222175	0.034575594079996
0	2294701	67.053306807382	0.042654179286998
0	2295200	67.064366955354	0.053714327259001
0	2295393	67.068660086059	0.058007457963996
0	2295464	67.069836434341	0.059183806245997
0	2295877	67.078985262499	0.068332634404001
0	2296392	67.090309132817	0.079656504721996
0	2335090	68.032590354955	0.021937725860013
0	2335099	68.032681202259	0.022028573164008
0	2335135	68.033484167586	0.022831538491005
0	2335155	68.033766703237	0.023114074142001
0	2335181	68.034363414637	0.023710785542008
0	2335478	68.042915531395	0.032262902300005
0	2335525	68.043932455986	0.033279826891004
0	2335555	68.044686000208	0.034033371113011
0	2335584	68.04543954443	0.034786915335005
0	2335821	68.052891893931	0.042239264836013
0	2335881	68.054424989717	0.043772360622
0	2336200	68.064385939924	0.053733310829003
0	2367333	69.032285962296	0.021300000867996
0	2367373	69.033088927623	0.022102966194993
0	2367427	69.03427410446	0.023288143031991
0	2367773	69.043843145809	0.032857184380987
0	2367799	69.044596690031	0.033610728602994
0	2367834	69.045350234253	0.034364272824988
0	2368103	69.053162088744	0.042176127315997
0	2368490	69.064226475135	0.053240513706996
0	2371629	69.155123930664	0.144137969236
0	2371681	69.156300278946	0.14531431751799
0	2371991	69.165449107104	0.15446314567599
0	2372384	69.176772977422	0.165787015994
0	2407741	70.032446700844	0.021460738616
0	2407777	70.033249666171	0.022263703942997
0	2407785	70.033273766991	0.022287804762996
0	2407843	70.034434843008	0.023448880779995
0	2407852	70.034450115273	0.023464153044998
0	2408194	70.044003884357	0.033017922128991
0	2408223	70.044701429291	0.03371546706299
0	2408231	70.044757428579	0.033771466350998
0	2408282	70.045992026521	0.035006064292986
0	2408562	70.053577711883	0.042591749654989
0	2408616	70.054922813749	0.043936851520996
0	2408929	70.064637859855	0.053651897626992
0	2441052	71.032285963096	0.021300000867996
0	2441099	71.033088928423	0.022102966194993
0	2441106	71.033139085377	0.022153123148996
0	2441158	71.03427410526	0.023288143031991
0	2441170	71.034315433659	0.023329471430998
0	2441537	71.043464261817	0.032478299588988
0	2441564	71.044155473762	0.033169511533998
0	2441592	71.044768007298	0.033782045069998
0	2441619	71.045380540834	0.034394578605998
0	2441950	71.053703727423	0.042717765194993
0	2442008	71.055202767335	0.044216805106998
0	2442376	71.065260910936	0.054274948707999
0	2477149	72.033058561216	0.022072598187989
0	2477190	72.033861526543	0.022875563514987
0	2477242	72.03466449187	0.023678528841998
0	2477705	72.044003885157	0.033017922128991
0	2477746	72.044757429379	0.033771466350998
0	2477808	72.045992027321	0.035006064292986
0	2478213	72.054622195234	0.043636232205998
0	2478711	72.065873448961	0.054887485932994
0	2490568	72.340377083961	0.329391120933
0	2490639	72.341553432243	0.330567469215
0	2490994	72.350702260401	0.33971629737299
0	2491436	72.362026130719	0.351040167691
0	2518760	73.032329662414	0.021343698586008
0	2518777	73.032587738695	0.021601774867008
0	2518801	73.033132627741	0.022146663913006
0	2518847	73.033764086977	0.02277812314901
0	2518903	73.034738558395	0.023752594567
0	2519245	73.043570374102	0.032584410274012
0	2519268	73.043886845927	0.032900882099014
0	2519307	73.044640390149	0.033654426321007
0	2519349	73.045874988091	0.034889024263009
0	2519615	73.053162091144	0.042176127316012
0	2519673	73.054236785453	0.043250821625008
0	2520071	73.06526658649	0.054280622662006
0	2555618	74.032587739495	0.021601774867008
0	2555629	74.032702625897	0.021716661269011
0	2555678	74.033505591224	0.022519626596008
0	2555691	74.033764087777	0.02277812314901
0	2555721	74.034317805378	0.023331840750004
0	2556076	74.042912915935	0.031926951307014
0	2556123	74.043886846727	0.032900882099014
0	2556164	74.044640390949	0.033654426321007
0	2556201	74.045874988891	0.034889024263009
0	2556491	74.053702191477	0.042716226849009
0	2556526	74.054236786253	0.043250821625008
0	2556951	74.065756410531	0.054770445903003
0	2592963	75.021598498964	0.010612533536005
0	2593496	75.032142412896	0.021156447468002
0	2593542	75.032860788343	0.021874822915009
0	2593575	75.03357916379	0.022593198362003
0	2594013	75.043099007364	0.032113041936
0	2594474	75.053705034339	0.042719068911012
0	2595426	75.077060561804	0.066074596376012
0	2602466	75.254633633486	0.243647668058
0	2602873	75.264488501444	0.253502536016
0	2602919	75.265624793775	0.25463882834701
0	2602957	75.266268486816	0.25528252138801
0	2602982	75.266912179857	0.25592621442901
0	2633180	76.021598499764	0.010612533536005
0	2633632	76.032142413696	0.021156447468002
0	2633670	76.032860789143	0.021874822915009
0	2633700	76.03357916459	0.022593198362003
0	2634134	76.04321758654	0.032231620312004
0	2634180	76.044084183907	0.033098217679012
0	2634580	76.053705035139	0.042719068911012
0	2634593	76.053939051865	0.042953085637009
0	2634649	76.055075344196	0.044089377968007
0	2634679	76.055719037237	0.044733071009006
0	2634704	76.056362730278	0.045376764050005
0	2635454	76.076402614151	0.065416647923001
0	2670282	77.021598500564	0.010612533536005
0	2670704	77.032142414496	0.021156447468002
0	2670748	77.032860789943	0.021874822915009
0	2670776	77.03357916539	0.022593198362003
0	2671120	77.042849080327	0.031863113299011
0	2671404	77.050553060647	0.039567093619013
0	2671529	77.053705035939	0.042719068911012
0	2671759	77.060407928605	0.049421961577011
0	2671803	77.061544220936	0.050558253908008
0	2671848	77.062665050318	0.051679083290011
0	2671875	77.063308743359	0.05232277633101
0	2672326	77.076402614951	0.065416647923001
0	2707663	78.021892618011	0.010612533535991
0	2708191	78.032580486317	0.021300401841998
0	2708231	78.033298861764	0.022018777288991
0	2708274	78.034017237211	0.022737152735999
0	2708738	78.043755151547	0.032475067071999
0	2709194	78.053999153386	0.042719068910998
0	2710257	78.077616148633	0.066336064157994
0	2712572	78.131617131805	0.12033704733
0	2713059	78.142219123453	0.130939038978
0	2713078	78.142608292094	0.13132820761899
0	2713106	78.143251985135	0.13197190065999
0	2713146	78.143895678176	0.13261559370099
0	2748782	79.021892618011	0.010612533535991
0	2749246	79.032438820027	0.021158735551992
0	2749289	79.033157195474	0.021877110999
0	2749332	79.033875570921	0.022595486445994
0	2749754	79.044005151547	0.032725067071993
0	2749765	79.044030446399	0.032750361923988
0	2750157	79.053999153386	0.042719068910998
0	2750170	79.05415490739	0.042874822914996
0	2750244	79.055656555186	0.044376470711001
0	2750266	79.056178989318	0.044898904842995
0	2750294	79.05670142345	0.04542133897499
0	2751133	79.077141484199	0.065861399724
0	2788876	80.032580085343	0.021300000867996
0	2788912	80.03338305067	0.022102966194993
0	2788923	80.033484555906	0.022204471430996
0	2788982	80.034568227507	0.023288143031991
0	2788991	80.034660904188	0.023380819712997
0	2789350	80.043809732346	0.032529647870987
0	2789371	80.044137268856	0.032857184381001
0	2789420	80.045362335928	0.034082251453
0	2789467	80.046587403	0.035307318525
0	2789730	80.053456211791	0.042176127315997
0	2789803	80.055133602664	0.043853518188996
0	2790187	80.065005151547	0.053725067071994
0	2827918	81.032580085343	0.021300000867996
0	2827945	81.032881859342	0.021601774866994
0	2827973	81.03338305067	0.022102966194993
0	2828015	81.034058207624	0.022778123148996
0	2828044	81.034568227507	0.023288143031991
0	2828377	81.043207035782	0.031926951307
0	2828429	81.044137268856	0.032857184381001
0	2828472	81.045362335928	0.034082251453
0	2828498	81.045974869464	0.034694784989
0	2828772	81.053456211791	0.042176127315997
0	2828827	81.0545309061	0.043250821624994
0	2829183	81.064633131718	0.053353047242993
0	2862977	82.03287420279	0.021300000867996
0	2862994	82.033175976789	0.021601774866994
0	2863032	82.033677168117	0.022102966194993
0	2863084	82.034352325071	0.022778123148996
0	2863109	82.034862344954	0.023288143031991
0	2863410	82.043501153229	0.031926951307
0	2863461	82.044431386303	0.032857184381001
0	2863507	82.045656453375	0.034082251453
0	2863538	82.046268986911	0.034694784989
0	2863817	82.054038237986	0.04246403606399
0	2863862	82.054825023547	0.043250821624994
0	2864213	82.065152210162	0.053578008239995
0	2896394	83.033168320237	0.021300000867996
0	2896431	83.033971285564	0.022102966194993
0	2896489	83.035156462401	0.023288143032005
0	2896835	83.04472550375	0.032857184381001
0	2896870	83.045479047972	0.033610728602994
0	2896899	83.046232592194	0.034364272825002
0	2897181	83.054253591068	0.042385271699004
0	2897558	83.06531373904	0.053445419670993
0	2901194	83.156666984245	0.14479866487599
0	2901244	83.157843332527	0.14597501315799
0	2901615	83.166992160685	0.155123841316
0	2902096	83.178316031003	0.16644771163399
0	2933995	84.033462437684	0.021300000867996
0	2934034	84.034265403011	0.022102966194993
0	2934041	84.034352324671	0.022189887855006
0	2934106	84.035450579848	0.023288143032005
0	2934116	84.035528672953	0.023366236136994
0	2934469	84.044677501111	0.032515064294998
0	2934480	84.045019621197	0.032857184381001
0	2934516	84.045773165419	0.033610728602994
0	2934565	84.046998232491	0.034835795674994
0	2934841	84.054338564132	0.042176127315997
0	2934919	84.056001371429	0.043838934613007
0	2935260	84.065402950523	0.053240513706996
0	2968813	85.023069087799	0.010612533536005
0	2968841	85.023681621335	0.011225067072004
0	2969739	85.044821358289	0.032364804026003
0	2970138	85.054921908188	0.042465353924996
0	2970527	85.065004670476	0.052548116213003
0	2970576	85.065882414341	0.053425860078008
0	2970589	85.066140225499	0.053683671236001
0	2970605	85.066404848473	0.053948294210002
0	2970614	85.066622797797	0.054166243533999
0	2970619	85.066662659631	0.054206105367996
0	2970636	85.066935224822	0.054478670559007
0	2971753	85.097450345349	0.084993791086006
0	3003397	86.023363205246	0.010612533536005
0	3003438	86.023975738782	0.011225067072004
0	3004223	86.045115475736	0.032364804026003
0	3004941	86.065298787923	0.052548116213003
0	3004968	86.065821222055	0.053070550344998
0	3005018	86.066855159825	0.054104488115001
0	3005026	86.066874840027	0.054124168317003
0	3006018	86.097442813903	0.084692142193006
0	3010582	86.22780939209	0.21505872038
0	3011093	86.238769898243	0.226019226533
0	3011121	86.239292332375	0.22654166066501
0	3011197	86.240979756885	0.228229085175
0	3043079	87.024269856229	0.011225067072004
0	3043119	87.024882389765	0.011837600608004
0	3043992	87.045859370269	0.032814581112007
0	3044355	87.055370408477	0.04232561932001
0	3044748	87.06559290537	0.052548116213003
0	3044770	87.066115339502	0.053070550345012
0	3044794	87.066519406955	0.053474617798003
0	3044811	87.066844444098	0.053799654941002
0	3044824	87.067041841087	0.053997051930011
0	3044829	87.067149277272	0.054104488115001
0	3044855	87.067564275219	0.054519486062006
0	3045904	87.09773693135	0.084692142193006
0	3078600	88.023975738382	0.010636831777987
0	3078654	88.024588271918	0.011249365313986
0	3079608	88.045847665004	0.032508758399999
0	3080000	88.055510387494	0.042171480889991
0	3080447	88.065972770945	0.05263386434099
0	3080464	88.066495205077	0.053156298472999
0	3080483	88.066862109461	0.053523202856994
0	3080501	88.067017639209	0.053678732604993
0	3080524	88.067300181482	0.053961274877992
0	3080539	88.067587349093	0.054248442488998
0	3080574	88.068176325524	0.054837418919988
0	3081761	88.098626815337	0.085287908732994
0	3116426	89.024245557587	0.010612533535991
0	3116459	89.024858091123	0.01122506707199
0	3117283	89.045997828077	0.032364804025988
0	3117634	89.055804504941	0.042171480889991
0	3117987	89.066181140264	0.052548116212989
0	3118007	89.066703574396	0.053070550344998
0	3118012	89.066765011094	0.053131987042988
0	3118048	89.067432678992	0.053799654940988
0	3118056	89.067641155136	0.054008131084998
0	3118065	89.067737512166	0.054104488115001
0	3118096	89.068517299178	0.054884275126994
0	3119090	89.098563222073	0.084930198021993
0	3154417	90.024400328862	0.010497035541007
0	3155554	90.045871518615	0.031968225294008
0	3155565	90.045959901003	0.032056607682009
0	3155666	90.047602867186	0.033699573865007
0	3155728	90.048890253268	0.034986959947005
0	3155804	90.05017763935	0.036274346029003
0	3156184	90.058707173804	0.044803880483002
0	3156523	90.066578857233	0.052675563912004
0	3156591	90.068069963856	0.054166670535011
0	3156612	90.068480171273	0.054576877952002
0	3156649	90.06919854672	0.055295253399009
0	3157127	90.078980171273	0.065076877952009
0	3199091	91.024894399944	0.01099110662301
0	3200176	91.04569854672	0.031795253399011
0	3200184	91.045894399944	0.031991106623011
0	3200285	91.047602867186	0.033699573865007
0	3200323	91.048246560227	0.034343266906006
0	3200387	91.049256351809	0.035353058487999
0	3200834	91.058445819521	0.044542526200004
0	3201224	91.066894399944	0.052991106623011
0	3201246	91.067391435485	0.053488142163999
0	3201263	91.067595999404	0.053692706082998
0	3201299	91.068314374851	0.054411081530006
0	3201751	91.078455372971	0.064552079649999
0	3241283	92.024400328862	0.010497035541007
0	3242205	92.045510937135	0.031607643813999
0	3242226	92.045980171273	0.032076877952008
0	3242317	92.047602867186	0.033699573865007
0	3242354	92.048246560227	0.034343266906006
0	3242386	92.048890253268	0.034986959947005
0	3242780	92.058727444074	0.044824150753001
0	3243051	92.066506864237	0.052603570916006
0	3243084	92.067159983893	0.053256690571999
0	3243112	92.067980171273	0.054076877951999
0	3243176	92.069416922167	0.055513628846001
0	3243485	92.078980171273	0.065076877952009
0	3284803	93.024400328862	0.010497035541007
0	3285784	93.045511795826	0.031608502505009
0	3286384	93.058221400202	0.044318106881008
0	3286392	93.058259068627	0.044355775306002
0	3286502	93.060313330253	0.046410036932002
0	3286540	93.060957023294	0.047053729973001
0	3286570	93.061600716335	0.047697423014
0	3286801	93.066869397773	0.052966104452011
0	3286848	93.067730171273	0.053826877952005
0	3286952	93.069885297614	0.055982004293
0	3287410	93.07987044696	0.065967153639008
0	3287991	93.092540423955	0.078637130634007
0	3328507	94.024400328862	0.010497035541007
0	3329504	94.046666922167	0.032763628845998
0	3330078	94.059414194968	0.045510901647006
0	3330399	94.066506864237	0.052603570916006
0	3330493	94.068564374851	0.05466108153
0	3330556	94.070001125745	0.056097832424001
0	3331456	94.091055191798	0.077151898476998
0	3331551	94.093147121849	0.079243828528007
0	3331583	94.09379081489	0.079887521569006
0	3331633	94.095078200972	0.081174907651004
0	3332370	94.112704238556	0.098800945234998
0	3332879	94.124855885834	0.110952592513
0	3366949	95.035497411636	0.02130000086801
0	3366997	95.036300376963	0.022102966195007
0	3367052	95.0374855538	0.023288143032005
0	3367414	95.047054595149	0.032857184381001
0	3367440	95.047808139371	0.033610728603009
0	3367476	95.048561683593	0.034364272825002
0	3367761	95.056373538084	0.042176127316012
0	3368190	95.067437924475	0.05324051370701
0	3369640	95.107208926621	0.093011515853007
0	3369694	95.108385274903	0.094187864135009
0	3370042	95.117534103061	0.10333669229301
0	3370474	95.128857973379	0.11466056261101
0	3406001	96.035791529083	0.021300000867996
0	3406044	96.036387359576	0.021895831360993
0	3406061	96.03659449441	0.022102966194993
0	3406126	96.037563707858	0.023072179642995
0	3406147	96.037779671247	0.023288143031991
0	3406502	96.046712536016	0.032221007800999
0	3406538	96.047348712596	0.032857184381001
0	3406583	96.048102256818	0.033610728602994
0	3406617	96.04885580104	0.034364272824988
0	3406948	96.05710505525	0.042613527034987
0	3406998	96.058036406334	0.043544878118993
0	3407393	96.068165203222	0.053673675006991
0	3445840	97.035791530083	0.02130000086801
0	3445859	97.036110049651	0.021618520436007
0	3445880	97.03659449541	0.022102966195007
0	3445933	97.037286397933	0.022794868718009
0	3445971	97.037779672247	0.023288143032005
0	3446324	97.046435226091	0.031943696875999
0	3446397	97.047716596309	0.033225067094008
0	3446439	97.048329129845	0.033837600630008
0	3446474	97.048941663381	0.034450134166008
0	3446773	97.05683901545	0.042347486235002
0	3446813	97.057759096409	0.043267567194007
0	3447230	97.068396198963	0.053904669748007
0	3484025	98.035791531083	0.021300000867996
0	3484059	98.03659449641	0.022102966195007
0	3484120	98.037779673247	0.023288143032005
0	3484468	98.047348714596	0.032857184381001
0	3484500	98.048102258818	0.033610728602994
0	3484535	98.04885580304	0.034364272825002
0	3484847	98.057451639288	0.042960109073007
0	3485249	98.068205857474	0.053714327259001
0	3487153	98.122695329561	0.108203799346
0	3487203	98.123871677843	0.109380147628
0	3487518	98.133020506001	0.11852897578601
0	3487915	98.144344376319	0.129852846104
0	3523550	99.036540319879	0.022048788663994
0	3523587	99.037343285206	0.022851753990992
0	3523634	99.038146250533	0.023654719318003
0	3524007	99.04748564382	0.032994112604996
0	3524040	99.048239188042	0.033747656827003
0	3524092	99.049473785984	0.034982254768991
0	3524393	99.05699692444	0.042505393224999
0	3524852	99.068479348289	0.053987817074002
0	3524861	99.068554107953	0.054062576737991
0	3524911	99.069655696571	0.055164165356004
0	3525290	99.078804524729	0.064312993513994
0	3525741	99.090128395047	0.075636863832003
0	3560098	100.035791533083	0.021300000867996
0	3560143	100.03659449841	0.022102966194993
0	3560154	100.036698226792	0.022206694576994
0	3560210	100.037779675247	0.023288143031991
0	3560220	100.037874575074	0.023383042858995
0	3560596	100.047023403232	0.032531871017
0	3560609	100.047348716596	0.032857184380987
0	3560649	100.048102260818	0.033610728602994
0	3560684	100.04885580504	0.034364272824988
0	3561015	100.057363198994	0.042871666778993
0	3561067	100.05834727355	0.043855741334994
0	3561459	100.068805558476	0.054314026260997
0	3596861	101.036061802353	0.02130000086801
0	3596896	101.03686476768	0.022102966195007
0	3596956	101.038049944517	0.023288143032005
0	3597331	101.047618985866	0.032857184381001
0	3597359	101.048372530088	0.033610728603009
0	3597410	101.04960712803	0.03484532654501
0	3597679	101.057099378414	0.042337576929
0	3598054	101.068159526386	0.053397724901004
0	3608684	101.33355941961	0.318797618125
0	3608735	101.334423737766	0.31966193628101
0	3609152	101.343572565924	0.328810764439
0	3609649	101.354896436242	0.34013463475701
0	3638558	102.03686476668	0.021832695924999
0	3638597	102.037667732007	0.022635661251996
0	3638645	102.038546979058	0.023514908303
0	3639058	102.048116020407	0.033083949651996
0	3639096	102.048869564629	0.033837493874003
0	3639172	102.050311191857	0.035279121101993
0	3639560	102.05942247178	0.044390401024998
0	3640079	102.071476690834	0.056444620079006
0	3646322	102.218449471689	0.203417400934
0	3646375	102.219625819971	0.204593749216
0	3646789	102.228774648129	0.21374257737401
0	3647269	102.240098518447	0.225066447692
0	3679512	103.036904114892	0.021601774866994
0	3679520	103.036968861437	0.021666521412001
0	3679565	103.037771826764	0.022469486738999
0	3679585	103.038080463174	0.022778123148996
0	3679639	103.038957003601	0.023654663575996
0	3679952	103.047229291332	0.031926951307
0	3680012	103.04852604495	0.033223704924993
0	3680071	103.049751112022	0.034448771996992
0	3680101	103.050363645558	0.035061305532992
0	3680426	103.05855316165	0.043250821624994
0	3680451	103.059335460782	0.044033120756993
0	3680952	103.071932812457	0.056630472431991
0	3716720	104.037174384162	0.021601774867008
0	3716778	104.038350732444	0.02277812314901
0	3717073	104.047499560602	0.031926951307
0	3717261	104.054113708769	0.038541099474003
0	3717289	104.054916674096	0.039344064801
0	3717338	104.056101850933	0.040529241638012
0	3717429	104.05882343092	0.043250821625008
0	3717621	104.065670892282	0.050098282987008
0	3717661	104.066895959354	0.051323350059008
0	3717696	104.068121026426	0.052548417131007
0	3718012	104.07946252136	0.063889912065008
0	3718342	104.09120944106	0.07563683176501
0	3752157	105.026363762283	0.010497035540993
0	3760759	105.241864568842	0.2259978421
0	3760914	105.245406991395	0.229540264653
0	3760938	105.245981787829	0.23011506108699
0	3760967	105.246583339677	0.230716612935
0	3760997	105.247158136111	0.23129140936899
0	3761661	105.2635136156	0.247646888858
0	3761702	105.264224542057	0.24835781531499
0	3761733	105.264746976189	0.248880249447
0	3761782	105.265879689871	0.250012963129
0	3762469	105.282145910302	0.26627918355999
0	3768968	105.448599192205	0.43273246546299
0	3790497	106.026678398118	0.010517553928992
0	3790945	106.037271452462	0.021110608272991
0	3791119	106.040813875015	0.024653030826002
0	3791147	106.041388671449	0.025227827259997
0	3791174	106.041990223297	0.025829379107989
0	3791197	106.042565019731	0.026404175541998
0	3791868	106.05892049922	0.042759655030991
0	3791893	106.059442933352	0.043282089163
0	3791917	106.059965367484	0.043804523294995
0	3791974	106.061286573491	0.045125729302001
0	3792607	106.079319273241	0.063158429051995
0	3794196	106.124025277891	0.10786443370199
0	3825720	107.026951997177	0.010497035540993
0	3826156	107.037859626403	0.02140466476699
0	3826318	107.041402048956	0.024947087320001
0	3826356	107.042565019531	0.026110057894996
0	3826391	107.043166571379	0.026711609743003
0	3826420	107.043741367813	0.027286406176998
0	3826992	107.059508673161	0.04305371152499
0	3827016	107.060031107293	0.043576145656999
0	3827039	107.060553541425	0.044098579788994
0	3827083	107.061874747432	0.045419785796
0	3827702	107.079313291164	0.062858329527998
0	3829320	107.124025155385	0.107570193749
0	3859364	108.027246114624	0.010497035540993
0	3861937	108.113123901171	0.096374822087995
0	3862069	108.116666323724	0.099917244641006
0	3862102	108.117829294299	0.101080215216
0	3862138	108.118853261527	0.10210418244399
0	3862143	108.119005642581	0.102256563498
0	3862635	108.134772947929	0.118023868846
0	3862663	108.135295382061	0.118546302978
0	3862681	108.135817816193	0.11906873711
0	3862730	108.1371390222	0.120389943117
0	3863516	108.162816028887	0.14606694980399
0	3867537	108.296331558894	0.279582479811
0	3889936	109.027540232071	0.010497035541007
0	3900049	109.351230467976	0.334187271446
0	3900189	109.354772890529	0.33772969399899
0	3900235	109.355935861104	0.338892664574
0	3900258	109.356537412952	0.339494216422
0	3900275	109.357112209386	0.34006901285601
0	3900775	109.372879514734	0.355836318204
0	3900806	109.373401948866	0.35635875233601
0	3900840	109.373924382998	0.356881186468
0	3900888	109.375245589005	0.35820239247501
0	3901894	109.40562798882	0.38858479229
0	3916099	109.868521037787	0.85147784125699
0	3920765	110.017337313977	0
0	3920768	110.017337313977	0
0	3921817	110.048825973961	0.031488659984007
0	3922181	110.059443849352	0.042106535374998
0	3922212	110.060056382888	0.042719068910998
0	3922577	110.071041877658	0.053704563681009
0	3924194	110.122683757002	0.105346443025
0	3940795	110.657565235137	0.64022792116
0	3941437	110.677449759472	0.660112445495
0	3941457	110.677972193604	0.660634879627
0	3942034	110.697302300247	0.67996498627001
0	3942368	110.708160967505	0.690823653528
0	3951952	111.017631431424	0
0	3951955	111.017631431424	0
0	3953042	111.049120091408	0.031488659984007
0	3953442	111.060096107444	0.042464676020003
0	3953466	111.060618541576	0.042987110151998
0	3953839	111.071335995105	0.053704563681009
0	3955500	111.122977874449	0.105346443025
0	3982489	111.962135479875	0.94450404845101
0	3983180	111.98202000421	0.96438857278601
0	3983206	111.982542438342	0.964911006918
0	3983849	112.001872544985	0.984241113561
0	3984230	112.012731212243	0.995099780819
0	3984445	112.017925548871	0
0	3984448	112.017925548871	0
0	3985503	112.049414208855	0.031488659984007
0	3985871	112.060032084246	0.042106535375012
0	3985896	112.060644617782	0.042719068911012
0	3986261	112.071630112552	0.053704563681009
0	3987857	112.123271991896	0.10534644302501
0	4016723	113.018219666318	0
0	4016726	113.018219666318	0
0	4017956	113.049763149275	0.031543482956991
0	4018362	113.060596726815	0.042377060496989
0	4018387	113.061119160947	0.042899494628998
0	4018790	113.071924229999	0.053704563680995
0	4020833	113.123566109343	0.105346443025
0	4026082	113.257883112498	1.239957563627
0	4026924	113.278096322402	1.260170773531
0	4026961	113.278618756534	1.260693207663
0	4027707	113.297675696508	1.279750147637
0	4028106	113.308478844866	1.290553295995
0	4057017	114.018513783765	0
0	4057020	114.018513783765	0
0	4058342	114.050002443749	0.031488659983992
0	4058812	114.06062031914	0.042106535374998
0	4058875	114.061665187404	0.043151403639001
0	4059332	114.072218347446	0.053704563680995
0	4061494	114.124440515844	0.105926732079
0	4077668	114.514811251815	1.496591585497
0	4078572	114.53469577615	1.516476109832
0	4078607	114.535218210282	1.516998543964
0	4079490	114.554881708505	1.536662042187
0	4079972	114.565779956337	1.547560290019
0	4101104	115.039813785633	0.02130000086801
0	4101133	115.04061675096	0.022102966195007
0	4101207	115.041801927797	0.023288143032005
0	4101603	115.051370969146	0.032857184381001
0	4101633	115.052124513368	0.033610728603009
0	4101665	115.05287805759	0.034364272825002
0	4101936	115.0610379136	0.042524128835012
0	4102291	115.072098061572	0.053584276807001
0	4113468	115.357664795868	1.339151012103
0	4114515	115.377549320203	1.359035536438
0	4114556	115.378071754335	1.35955797057
0	4115551	115.397401860978	1.378888077213
0	4116129	115.408678205001	1.390164421236
0	4146765	116.039813786633	0.02130000086801
0	4146817	116.04061675196	0.022102966195007
0	4146867	116.041801928797	0.023288143032005
0	4147283	116.051370970146	0.032857184381001
0	4147306	116.052124514368	0.033610728603009
0	4147366	116.053375216471	0.034861430706002
0	4147687	116.060842270816	0.042328485051002
0	4148183	116.071902418788	0.053388633023005
0	4154549	116.219831079027	1.201317294262
0	4154610	116.221007427309	1.202493642544
0	4154993	116.230156255467	1.211642470702
0	4155480	116.241480125785	1.22296634102
0	4180996	116.906230301574	0.887716515809
0	4181054	116.907450926993	0.888937141228
0	4181454	116.916555478014	0.89804169224901
0	4181919	116.927879348332	0.909365562567
0	4186831	117.040116816836	0.02130000086801
0	4186859	117.040919782163	0.022102966195007
0	4186927	117.042104959	0.023288143032005
0	4187350	117.051674000349	0.032857184381001
0	4187376	117.052427544571	0.033610728603009
0	4187432	117.053652611643	0.034835795675008
0	4187737	117.060992943284	0.042176127315997
0	4188181	117.072057329675	0.05324051370701
0	4215622	117.717322442013	0.69850562604501
0	4215672	117.718498790295	0.69968197432701
0	4216069	117.727647618453	0.708830802485
0	4216536	117.738971488771	0.72015467280301
0	4229908	118.040783812623	0.02166396645201
0	4229951	118.04158677795	0.022466931779007
0	4230014	118.042771954787	0.023652108616005
0	4230460	118.052340996136	0.033221149965001
0	4230494	118.053094540358	0.033974694187009
0	4230590	118.054796989411	0.035677143240008
0	4230902	118.061607923357	0.042488077186007
0	4231410	118.073678246572	0.054558400401007
0	4249985	118.521944666901	0.50282482073
0	4250040	118.523121015183	0.504001169012
0	4250393	118.532269843341	0.51314999717
0	4250831	118.543593713659	0.524473867488
0	4270626	119.041280848064	0.021857971689997
0	4270668	119.042083813391	0.022660937017008
0	4270733	119.043268990228	0.023846113854006
0	4271163	119.053072185868	0.03364930949401
0	4271195	119.053684719404	0.034261843030009
0	4271257	119.054909786476	0.035486910102009
0	4271674	119.06414448295	0.044721606576005
0	4272214	119.076198702004	0.056775825629998
0	4276416	119.171288918565	0.151866042191
0	4276464	119.172465266847	0.153042390473
0	4276843	119.181614095005	0.16219121863101
0	4277295	119.192937965323	0.173515088949
0	4307781	120.041025907445	0.02130000086801
0	4307828	120.041828872772	0.022102966195007
0	4307889	120.043014049609	0.023288143032005
0	4308344	120.053072185768	0.033346279191008
0	4308374	120.053684719304	0.033958812727008
0	4308396	120.054571233122	0.03484532654501
0	4308696	120.062323008828	0.042597102251008
0	4309153	120.073880192341	0.054154285764
0	4315064	120.222270705845	0.202544799268
0	4315129	120.223447054127	0.20372114755
0	4315515	120.232595882285	0.212869975708
0	4315986	120.243919752603	0.224193846026
0	4344683	121.041522942886	0.02149400610601
0	4344696	121.041630711647	0.021601774867008
0	4344715	121.042325908213	0.022296971433008
0	4344747	121.042807059929	0.02277812314901
0	4344782	121.04351108505	0.023482148270006
0	4345107	121.051955888087	0.031926951307
0	4345160	121.053080126399	0.033051189619002
0	4345192	121.053833670621	0.033804733841009
0	4345230	121.054587214843	0.034558278063002
0	4345534	121.063279758405	0.043250821625008
0	4345551	121.063431903841	0.043402967060999
0	4345922	121.073880192241	0.053851255460998
0	4376599	122.041631967851	0.02130000086801
0	4376633	122.042434933178	0.022102966195007
0	4376690	122.043620110015	0.023288143032005
0	4377043	122.053189151364	0.032857184381001
0	4377079	122.053942695586	0.033610728603009
0	4377115	122.054696239808	0.034364272825002
0	4377375	122.062508094299	0.042176127315997
0	4377789	122.074065277812	0.053733310829003
0	4381811	122.19386196134	0.173529994357
0	4381862	122.195038309622	0.174706342639
0	4382212	122.20418713778	0.183855170797
0	4382681	122.215511008098	0.195179041115
0	4414723	123.042236772053	0.021601774867008
0	4414748	123.042990004417	0.022355007230999
0	4414779	123.043413120335	0.02277812314901
0	4414800	123.043792969744	0.02315797255801
0	4414864	123.044978146581	0.024343149395008
0	4415149	123.052561948493	0.031926951307
0	4415247	123.05454718793	0.033912190744005
0	4415282	123.055300732152	0.034665734965998
0	4415307	123.056054276374	0.035419279188005
0	4415576	123.063368461598	0.042733464412009
0	4415605	123.064195236616	0.043560239430008
0	4415995	123.074925645111	0.054290647925001
0	4448012	124.042539802256	0.021601774867008
0	4448065	124.043716150538	0.02277812314901
0	4448156	124.046901061696	0.025963034306997
0	4448182	124.047704027023	0.026765999634009
0	4448232	124.04888920386	0.027951176471007
0	4448339	124.052864978696	0.031926951307
0	4448489	124.058458245209	0.037520217820003
0	4448535	124.059683312281	0.038745284892002
0	4448570	124.060908379353	0.039970351964001
0	4448673	124.064188849014	0.043250821625008
0	4448896	124.072746909828	0.051808882439005
0	4449228	124.08460028274	0.063662255351005
0	4484034	125.04254105846	0.02130000086801
0	4484089	125.043344023787	0.022102966195007
0	4484152	125.044529200624	0.023288143032005
0	4484597	125.054098241973	0.032857184381001
0	4484636	125.054851786195	0.033610728603009
0	4484679	125.055605330417	0.034364272825002
0	4485088	125.064907657805	0.043666600213001
0	4485601	125.076464841318	0.055223783726007
0	4488782	125.150799643583	0.12955858599101
0	4488846	125.151975991865	0.13073493427301
0	4489228	125.161124820023	0.139883762431
0	4489720	125.172448690341	0.15120763274901
0	4524878	126.043013343166	0.021772284573998
0	4524905	126.043447289795	0.022206231203
0	4524946	126.044019181741	0.022778123148996
0	4524960	126.044250255122	0.023009196529998
0	4525018	126.045435431959	0.024194373366996
0	4525367	126.053999860187	0.032758801594994
0	4525411	126.055004473308	0.033763414716006
0	4525448	126.05575801753	0.034516958937999
0	4525495	126.056511561752	0.035270503160007
0	4525820	126.064491880217	0.043250821624994
0	4525853	126.065316853599	0.044075795007004
0	4526318	126.076874037112	0.055632978519995
0	4561924	127.042950255254	0.021709195661998
0	4561964	127.043753220581	0.022512160988995
0	4562037	127.044938397418	0.023697337825993
0	4562491	127.054571389844	0.033330330251999
0	4562532	127.055260982989	0.034019923396997
0	4562566	127.056014527211	0.03477346761899
0	4562979	127.065125748844	0.043884689251996
0	4563483	127.076676653024	0.055435593431994
0	4573422	127.30317175158	0.28193069198799
0	4573478	127.304348099862	0.28310704027
0	4573872	127.31349692802	0.292255868428
0	4574344	127.324820798338	0.303579738746
0	4605107	128.043445010753	0.022203950161014
0	4605143	128.04424797608	0.023006915487997
0	4605215	128.045433152917	0.024192092324995
0	4605468	128.050741084791	0.029500024198995
0	4605531	128.051917433073	0.030676372480997
0	4605671	128.055002194266	0.033761133674005
0	4605733	128.056227261338	0.034986200746005
0	4605772	128.056839794874	0.035598734282019
0	4605950	128.061066261231	0.039825200639001
0	4606111	128.064817539016	0.043576478424001
0	4606444	128.072390131549	0.051149070956996
0	4606583	128.075877686988	0.054636626396018
0	4641038	129.042817711997	0.021576650404995
0	4641081	129.043620677324	0.022379615731978
0	4641128	129.044529204624	0.023288143031976
0	4641465	129.054098245973	0.032857184380987
0	4641496	129.054851790195	0.03361072860298
0	4641530	129.055605334417	0.034364272825002
0	4641795	129.063704764647	0.042463703054977
0	4642180	129.074764912619	0.053523851026995
0	4652103	129.325788517376	0.30454745578399
0	4652150	129.326964865658	0.30572380406599
0	4652513	129.336113693816	0.314872632224
0	4652953	129.347437564134	0.32619650254199
0	4677943	130.042874394793	0.021300000867996
0	4677977	130.043528865358	0.021954471432991
0	4677989	130.04367736012	0.022102966195007
0	4678042	130.04470521364	0.023130819714993
0	4678057	130.044862536957	0.023288143032005
0	4678348	130.053854041798	0.032279647872997
0	4678375	130.054431578306	0.032857184381015
0	4678413	130.055185122528	0.033610728603009
0	4678463	130.05641972047	0.034845326544996
0	4678715	130.06403809698	0.042463703055006
0	4678753	130.065177912116	0.043603518190992
0	4679113	130.075595280493	0.054020886567997
0	4709012	131.043509501125	0.02160177486698
0	4709036	131.044026238166	0.022118511907991
0	4709066	131.044685849407	0.022778123148981
0	4709072	131.044829203493	0.022921477235002
0	4709115	131.04601438033	0.024106654072
0	4709345	131.053834677565	0.031926951306986
0	4709399	131.055583421679	0.033675695420982
0	4709436	131.056808488751	0.034900762492981
0	4709456	131.057421022287	0.035513296028995
0	4709676	131.064901730888	0.042994004630003
0	4709692	131.065158547883	0.04325082162498
0	4710022	131.076955949942	0.055048223683997
0	4741828	132.043704761667	0.021463703075995
0	4741859	132.044507726994	0.022266668403006
0	4741924	132.045692903831	0.023451845240004
0	4742298	132.05526194518	0.033020886589014
0	4742331	132.056015489402	0.033774430811008
0	4742382	132.057250087344	0.035009028752995
0	4742665	132.064704761646	0.042463703055006
0	4742951	132.072427372249	0.050186313658003
0	4743003	132.073603720531	0.051362661940004
0	4743114	132.076261945159	0.054020886567997
0	4743348	132.082752548689	0.060511490098008
0	4743784	132.094076419007	0.071835360416003
0	4773985	133.044201796208	0.021627405283994
0	4773995	133.044274021549	0.021699630624994
0	4774024	133.045004761535	0.022430370610977
0	4774062	133.045450369831	0.022875978906995
0	4774097	133.046189938372	0.023615547448003
0	4774388	133.054599197989	0.032024807065
0	4774441	133.055758979721	0.033184588796985
0	4774470	133.056512523943	0.033938133018978
0	4774500	133.057266068165	0.034691677241
0	4774761	133.06475051824	0.042176127315997
0	4774813	133.066346751546	0.043772360622
0	4775134	133.076307701753	0.053733310828989
0	4805118	134.044207724125	0.021300000867996
0	4805150	134.045010689452	0.022102966195007
0	4805200	134.046195866289	0.023288143032005
0	4805534	134.055764907638	0.032857184381015
0	4805565	134.05651845186	0.033610728603009
0	4805591	134.057271996082	0.034364272825002
0	4805835	134.065083850573	0.042176127315997
0	4806203	134.076148236964	0.05324051370701
0	4807548	134.117458947028	0.094551223770992
0	4807594	134.11863529531	0.095727572052994
0	4807886	134.128010689369	0.10510296611201
0	4808253	134.139107993786	0.11620027052899
0	4839633	135.044842830457	0.02160177486698
0	4839641	135.045077920676	0.021836865085987
0	4839670	135.045880886003	0.022639830412999
0	4839684	135.046019178739	0.022778123148981
0	4839729	135.04706606284	0.023825007249997
0	4840029	135.055324561282	0.032083505691986
0	4840087	135.056635104189	0.033394048598979
0	4840133	135.057860171261	0.034619115670978
0	4840160	135.058472704797	0.035231649206992
0	4840381	135.065417182906	0.042176127315997
0	4840416	135.066491877215	0.04325082162498
0	4840753	135.076974366419	0.053733310828989
0	4871173	136.045077919676	0.021503531753012
0	4871180	136.04517616279	0.021601774867008
0	4871205	136.045880885003	0.022306497079995
0	4871242	136.046352511072	0.02277812314901
0	4871274	136.04706606184	0.023491673916993
0	4871547	136.05550133923	0.031926951307014
0	4871601	136.056635103189	0.033060715266004
0	4871645	136.057860170261	0.034285782338003
0	4871670	136.058472703797	0.034898315874017
0	4871898	136.066068826972	0.042494439048994
0	4871931	136.066825209548	0.043250821625008
0	4872286	136.077804734293	0.054230346370019
0	4903494	137.045207721124	0.021300000867996
0	4903537	137.046010686451	0.022102966194979
0	4903596	137.047195863288	0.023288143032005
0	4904011	137.056764904637	0.032857184380987
0	4904065	137.057989971709	0.034082251452986
0	4904100	137.058602505245	0.034694784989
0	4904411	137.066371423311	0.042463703055006
0	4904861	137.077928606824	0.054020886567997
0	4907108	137.139334709389	0.115426989133
0	4907160	137.140511057671	0.116603337415
0	4907512	137.149659885829	0.125752165573
0	4907946	137.160983756147	0.137076035891
0	4937020	138.045541053457	0.021300000867996
0	4937061	138.046344018784	0.022102966195007
0	4937078	138.046662460012	0.022421407422996
0	4937117	138.047528857354	0.023287804765005
0	4937126	138.047529195621	0.023288143032005
0	4937455	138.056677685512	0.032436632923009
0	4937472	138.05709823697	0.032857184381015
0	4937529	138.058323304042	0.034082251453015
0	4937550	138.058935837578	0.034694784989
0	4937798	138.066868457852	0.042627405263005
0	4937844	138.06800155583	0.043760503241003
0	4938166	138.078425641365	0.054184588775996
0	4967762	139.04587438579	0.021300000867996
0	4967791	139.046677351117	0.022102966194979
0	4967846	139.047862527954	0.023288143032005
0	4967936	139.050390194941	0.025815810018997
0	4967989	139.051566543223	0.026992158300999
0	4968202	139.057431569303	0.032857184380987
0	4968231	139.058185113525	0.03361072860298
0	4968287	139.059419711467	0.034845326544996
0	4968328	139.060715371381	0.036140986459003
0	4968530	139.066750512238	0.042176127315997
0	4968708	139.072039241699	0.047464856776998
0	4968911	139.078307695751	0.053733310828989
0	5002427	140.046207718123	0.021300000867996
0	5002449	140.046509492122	0.021601774867008
0	5002470	140.04701068345	0.022102966195007
0	5002505	140.047685840404	0.02277812314901
0	5002534	140.048195860287	0.023288143032005
0	5002861	140.057344016773	0.032436299517997
0	5002883	140.057764901636	0.032857184381015
0	5002906	140.058518445858	0.033610728603009
0	5002957	140.0597530438	0.034845326544996
0	5003240	140.06737142031	0.042463703055006
0	5003278	140.06815853888	0.043250821625008
0	5003635	140.078431568282	0.053523851026995
0	5034477	141.046704752664	0.021463703075995
0	5034488	141.046842824455	0.02160177486698
0	5034510	141.047507717991	0.022266668403006
0	5034544	141.048019172737	0.022778123148981
0	5034577	141.048692894828	0.023451845240004
0	5034897	141.057841051314	0.032600001725996
0	5034923	141.058261936177	0.033020886588986
0	5034947	141.059015480399	0.033774430810979
0	5034967	141.059769024621	0.034527975033001
0	5035197	141.067417176904	0.042176127315997
0	5035260	141.06885642516	0.043615375571989
0	5035532	141.078481563295	0.053240513706982
0	5065021	142.046874382789	0.021300000867996
0	5065065	142.047677348116	0.022102966195007
0	5065119	142.048862524953	0.023288143032005
0	5065449	142.058431566302	0.032857184381015
0	5065474	142.059185110524	0.033610728603009
0	5065500	142.059938654746	0.034364272825002
0	5065770	142.067750509237	0.042176127315997
0	5066163	142.078814895628	0.05324051370701
0	5069154	142.159795002064	0.134220620143
0	5069218	142.160971350346	0.135396968425
0	5069605	142.170677347993	0.14510296607202
0	5070033	142.181444048822	0.155869666901
0	5099334	143.04737141733	0.021463703075995
0	5099349	143.047528852354	0.021621138099988
0	5099376	143.048174382657	0.022266668403006
0	5099412	143.048705200636	0.02279748638199
0	5099451	143.049359559494	0.023451845240004
0	5099788	143.057854028794	0.031946314539994
0	5099836	143.058928600843	0.033020886588986
0	5099869	143.059682145065	0.033774430811008
0	5099903	143.060435689287	0.034527975033001
0	5100200	143.068624428734	0.04271671447998
0	5100230	143.069346741587	0.043439027332994
0	5100606	143.079684576706	0.053776862451997
0	5135098	144.047509490121	0.021601774867008
0	5135155	144.048685838403	0.02277812314901
0	5135220	144.050414234635	0.024506519380992
0	5135248	144.051217199962	0.025309484708004
0	5135293	144.052402376799	0.026494661545001
0	5135449	144.057834666561	0.031926951307014
0	5135589	144.061971418148	0.036063702894012
0	5135622	144.06319648522	0.037288769966011
0	5135659	144.064421552292	0.03851383703801
0	5135800	144.069158536879	0.043250821625008
0	5136095	144.079739331554	0.053831616300016
0	5136425	144.091418496666	0.065510781412002
0	5173383	145.047419038377	0.02151132212299
0	5173424	145.048222003704	0.022314287449973
0	5173489	145.049407180541	0.023499464286999
0	5173965	145.059513735698	0.033606019443994
0	5173999	145.060126269234	0.034218552979979
0	5174025	145.06073880277	0.034831086515993
0	5174381	145.068706374397	0.042798658142999
0	5174449	145.069882722679	0.043975006424972
0	5174470	145.070282673263	0.044374957008984
0	5174862	145.079031550837	0.053123834582976
0	5175011	145.082370878546	0.056463162291976
0	5175370	145.090355421155	0.064447704900999
0	5216371	146.047747585959	0.021601774867008
0	5216438	146.048923934241	0.02277812314901
0	5216549	146.05167505267	0.025529241577999
0	5216587	146.052478017997	0.02633220690501
0	5216650	146.053663194834	0.027517383742008
0	5216854	146.058072762399	0.031926951307014
0	5217062	146.063232236183	0.03708642509099
0	5217093	146.063985780405	0.037839969313012
0	5217158	146.06522802101	0.039082209918007
0	5217336	146.069396632717	0.043250821625008
0	5217572	146.075035723097	0.048889912004995
0	5218061	146.08659290661	0.060447095518015
0	5260106	147.061026882641	0.034642976710984
0	5260158	147.061829847968	0.035445942037995
0	5260224	147.063015024805	0.036631118874993
0	5260654	147.072584066154	0.046200160224004
0	5260716	147.073809133226	0.047425227296003
0	5260745	147.074421666762	0.048037760831988
0	5261337	147.0876756961	0.061291790170003
0	5261861	147.099513734882	0.073129828952005
0	5264225	147.149851737663	0.123467831733
0	5264281	147.151028085945	0.124644180015
0	5264711	147.160176914103	0.133793008173
0	5265218	147.171500784421	0.145116878491
0	5303739	148.048923933441	0.022301932673003
0	5303800	148.050100281723	0.023478280955004
0	5304217	148.059249109881	0.032627109113008
0	5304711	148.070572980199	0.043950979431003
0	5304788	148.072494208576	0.045872207808003
0	5304840	148.073297173903	0.046675173135014
0	5304904	148.07448235074	0.047860349972012
0	5305308	148.084051392089	0.057429391321023
0	5305367	148.085276459161	0.058654458393022
0	5305398	148.085888992697	0.059266991929007
0	5305925	148.097460809657	0.070838808889022
0	5306414	148.108406133598	0.081784132830023
0	5346685	149.052143380957	0.025283285351009
0	5346721	149.052946346284	0.026086250677992
0	5346784	149.054131523121	0.027271427514989
0	5347237	149.06370056447	0.036840468864
0	5347274	149.064454108692	0.037594013085993
0	5347328	149.065207652914	0.038347557307986
0	5347763	149.074509980302	0.047649884696
0	5348314	149.086564199356	0.059704103749993
0	5351809	149.164587465001	0.13772736939501
0	5351871	149.165763813283	0.13890371767701
0	5352275	149.174912641441	0.14805254583499
0	5352771	149.186236511759	0.15937641615301
0	5391349	150.048699965311	0.02160177486698
0	5391427	150.050186264521	0.023088074076981
0	5391861	150.059443316809	0.032345126364987
0	5392375	150.070349012069	0.04325082162498
0	5392385	150.070569204466	0.043471014022003
0	5392429	150.071372169793	0.044273979348986
0	5392495	150.07255734663	0.045459156185984
0	5392936	150.082126387979	0.055028197534995
0	5393001	150.083351455051	0.056253264606994
0	5393035	150.083963988587	0.056865798142979
0	5393437	150.093021200917	0.065923010473
0	5393936	150.104492987324	0.077394796879986
0	5434467	151.051447632023	0.024111346740995
0	5434500	151.05225059735	0.024914312068006
0	5434572	151.053435774187	0.026099488905004
0	5434993	151.063004815536	0.035668530254014
0	5435031	151.063758359758	0.036422074476008
0	5435075	151.06451190398	0.037175618698001
0	5435543	151.075305337991	0.047969052708993
0	5436055	151.086862521504	0.059526236222013
0	5440485	151.184593701787	0.15725741650502
0	5440552	151.185770050069	0.15843376478702
0	5440978	151.194918878227	0.167582592945
0	5441486	151.206242748545	0.17890646326302
0	5478690	152.050100280123	0.022525900002989
0	5478722	152.050772474403	0.023198094283003
0	5478757	152.051276628405	0.023702248284991
0	5478772	152.05157543973	0.024001059609986
0	5478821	152.052454686781	0.024880306661004
0	5479200	152.060425456563	0.032851076442995
0	5479291	152.062370875754	0.034796495633998
0	5479325	152.06298340929	0.035409029169983
0	5479382	152.064011870294	0.036437490173995
0	5479730	152.071749326881	0.04417494676099
0	5479945	152.07680942829	0.049235048170004
0	5480460	152.088366611803	0.060792231682996
0	5521147	153.050901397095	0.023088922137021
0	5521188	153.051704362422	0.023891887464004
0	5521258	153.052774715228	0.024962240270014
0	5521681	153.062370875354	0.034558400396008
0	5521714	153.063097300799	0.035284825841018
0	5521752	153.063850845021	0.036038370063011
0	5522238	153.074644279032	0.046831804074003
0	5522746	153.085704427004	0.05789195204602
0	5528440	153.212139416736	0.18432694177801
0	5528502	153.213315765018	0.18550329006001
0	5528921	153.222464593176	0.19465211821802
0	5529434	153.233788463494	0.20597598853601
0	5565865	154.050100279323	0.02204970952701
0	5565929	154.051276627605	0.023226057809012
0	5566118	154.055729844937	0.027679275140997
0	5566150	154.056532810264	0.028482240468009
0	5566199	154.057412057315	0.029361487518997
0	5566377	154.061197235888	0.033146666091994
0	5566612	154.066981098664	0.038930528868008
0	5566665	154.068206165736	0.040155595940007
0	5566704	154.068969240828	0.040918671032017
0	5566847	154.071749326081	0.043698756285011
0	5567255	154.081269763283	0.053219193486996
0	5567727	154.092329911255	0.064279341459013
0	5606961	155.050812032299	0.022523367665002
0	5607010	155.051614997626	0.023326332991985
0	5607088	155.052800174463	0.024511509828983
0	5607540	155.062369215812	0.034080551177993
0	5607583	155.063122760034	0.034834095399987
0	5607640	155.064347827106	0.036059162471986
0	5608187	155.075472703594	0.047184038959983
0	5608745	155.087132779306	0.058844114671984
0	5616491	155.25198443541	0.223695770776
0	5616555	155.253160783692	0.22487211905801
0	5617007	155.26230961185	0.23402094721598
0	5617554	155.273633482168	0.245344817534
0	5652457	156.054074365388	0.025547605916017
0	5652500	156.054877330715	0.026350571243
0	5652572	156.056062507552	0.027535748079998
0	5653003	156.065631548901	0.037104789429009
0	5653046	156.066385093123	0.037858333651002
0	5653100	156.067610160195	0.039083400723001
0	5653595	156.078369103515	0.049842344043014
0	5653662	156.079545451797	0.051018692325016
0	5653678	156.079729107765	0.051202348293003
0	5654080	156.088694279955	0.06016752048302
0	5654199	156.090980361492	0.062453602020014
0	5654608	156.100018150273	0.071491390801015
0	5694807	157.059577264831	0.030812410521008
0	5694844	157.060380230158	0.031615375847991
0	5694910	157.061565406995	0.032800552684989
0	5695326	157.071134448344	0.042369594034
0	5695360	157.071887992566	0.043123138255993
0	5695412	157.073122590508	0.044357736198009
0	5695449	157.073800189765	0.045035335454997
0	5695888	157.085051443492	0.056286589182008
0	5696955	157.113451647808	0.084686793498008
0	5696999	157.114315965964	0.085551111654013
0	5697335	157.123464794122	0.094699939811989
0	5697772	157.13478866444	0.10602381013001
0	5738842	158.051857530368	0.022854581220003
0	5738888	158.052660495695	0.023657546546985
0	5738951	158.053845672532	0.024842723383983
0	5739385	158.063414713881	0.034411764732994
0	5739415	158.064168258103	0.035165308954987
0	5739489	158.065675346547	0.036672397399002
0	5739815	158.073727094172	0.044724145023991
0	5740330	158.08590369185	0.056900742701998
0	5742128	158.129228389315	0.10022544016698
[...]
0	6902628	189.067598746588	0.03416869942501
0	6902673	189.06835229081	0.034922243647003
0	6902983	189.076609165128	0.043179117964996
0	6903001	189.076990286593	0.043560239430008
0	6903448	189.088663384182	0.05523333701899
0	6936171	190.055227083472	0.021494006105996
0	6936196	190.056030048799	0.022296971432979
0	6936259	190.057215225636	0.023482148269977
0	6936611	190.066784266985	0.033051189618988
0	6936648	190.067537811207	0.033804733840981
0	6936679	190.068291355429	0.034558278062974
0	6936939	190.075909204682	0.042176127315997
0	6937297	190.086973591073	0.053240513706982
0	6940707	190.189568346506	0.15583526914
0	6940758	190.190744694788	0.157011617422
0	6941076	190.199893522946	0.16616044557998
0	6941461	190.211217393264	0.177484315898
0	6974240	191.055637882436	0.021601774867008
0	6974257	191.056003104324	0.021966996754998
0	6974297	191.056806069651	0.022769962082009
0	6974310	191.056814230718	0.02277812314901
0	6974369	191.057991246488	0.023955138919007
0	6974668	191.065963058876	0.031926951307014
0	6974753	191.067560287837	0.033524180267989
0	6974796	191.068785354909	0.034749247339988
0	6974824	191.069397888445	0.035361780876002
0	6975076	191.076212234885	0.042176127315997
0	6975146	191.077484816512	0.043448708943004
0	6975533	191.087276621276	0.05324051370701
0	7011039	192.055637883236	0.02160177486698
0	7011044	192.055657584733	0.021621476363975
0	7011088	192.05646055006	0.022424441690987
0	7011122	192.056814231518	0.022778123148981
0	7011161	192.057645726897	0.023609618527985
0	7011493	192.065963059676	0.031926951306986
0	7011547	192.067214768246	0.033178659876995
0	7011592	192.067968312468	0.033932204098988
0	7011642	192.06919337954	0.035157271170988
0	7011968	192.077484817312	0.043448708942975
0	7011989	192.078024184078	0.043988075708995
0	7012406	192.08908433205	0.055048223680984
0	7047243	193.055336110037	0.021300000867996
0	7047275	193.056139075364	0.022102966195007
0	7047342	193.057324252201	0.023288143032005
0	7047722	193.06689329355	0.032857184381015
0	7047752	193.067646837772	0.033610728603009
0	7047783	193.068400381994	0.034364272825002
0	7048086	193.07638870115	0.042352591981
0	7048485	193.087448849122	0.053412739952989
0	7053288	193.227795455192	0.193759346023
0	7053339	193.228971803474	0.194935694305
0	7053655	193.238120631632	0.20408452246301
0	7054058	193.24944450195	0.215408392781
0	7087807	194.055982395628	0.021946285658998
0	7087841	194.056785360955	0.022749250985981
0	7087909	194.057970537792	0.023934427822979
0	7088333	194.067539579141	0.03350346917199
0	7088360	194.068293123363	0.034257013393983
0	7088407	194.069046667585	0.035010557615976
0	7088716	194.076768697461	0.042732587491997
0	7089177	194.087828845433	0.053792735463986
0	7090714	194.123584671935	0.089548561965984
0	7090765	194.124761020217	0.090724910247985
0	7091139	194.133909848375	0.099873738405989
0	7091594	194.145233718693	0.11119760872398
0	7125318	195.055774627163	0.021738516394009
0	7125340	195.056013519169	0.021977408400005
0	7125361	195.05657759249	0.022541481720992
0	7125400	195.057189867451	0.023153756682007
0	7125426	195.057762769327	0.02372665855799
0	7125817	195.067245072593	0.033208961823988
0	7125822	195.067331810676	0.033295699907001
0	7125868	195.068556877748	0.034520766979
0	7125900	195.069169411284	0.035133300515014
0	7126171	195.076212238085	0.042176127315997
0	7126226	195.077662565927	0.043626455158005
0	7126586	195.087769421598	0.053733310828989
0	7159735	196.05563914184	0.021300000867996
0	7159763	196.056442107167	0.022102966194979
0	7159824	196.057627284004	0.023288143031976
0	7160161	196.067196325353	0.032857184380987
0	7160192	196.067949869575	0.03361072860298
0	7160221	196.068703413797	0.034364272825002
0	7160479	196.076515268288	0.042176127315997
0	7160868	196.088072451801	0.053733310828989
0	7164080	196.184668284467	0.15032914349499
0	7164123	196.185844632749	0.15150549177699
0	7164441	196.194993460907	0.16065431993499
0	7164824	196.206317331225	0.17197819025299
0	7197823	197.056136177281	0.021494006105996
0	7197833	197.056243946042	0.021601774867008
0	7197862	197.056939142608	0.022296971433008
0	7197896	197.057420294324	0.02277812314901
0	7197935	197.058124319445	0.023482148270006
0	7198239	197.066569122482	0.031926951307014
0	7198289	197.067693360794	0.033051189619016
0	7198315	197.068446905016	0.033804733841009
0	7198357	197.069200449238	0.034558278063002
0	7198612	197.076827218058	0.042185046882992
0	7198664	197.078202410605	0.043560239430008
0	7199061	197.088897541273	0.054255370097991
0	7232612	198.056245202246	0.021300000867996
0	7232633	198.056546976245	0.02160177486698
0	7232656	198.057048167573	0.022102966194979
0	7232700	198.057723324527	0.022778123148981
0	7232729	198.05823334441	0.023288143031976
0	7233129	198.066872152685	0.031926951306986
0	7233179	198.067802385759	0.032857184380987
0	7233235	198.069027452831	0.034082251452986
0	7233275	198.069639986367	0.034694784989
0	7233653	198.078196023003	0.04325082162498
0	7233689	198.079108837132	0.044163635753989
0	7234179	198.090666020645	0.05572081926698
0	7273540	199.056804265034	0.021615161317015
0	7273580	199.057607230361	0.022418126643998
0	7273628	199.058486477412	0.023297373695016
0	7274009	199.068055518761	0.032866415043998
0	7274053	199.068809062983	0.033619959266019
0	7274081	199.069562607205	0.034373503488013
0	7274380	199.077365231033	0.042176127315997
0	7274825	199.088922414546	0.053733310829017
0	7279481	199.214917683686	0.17972857996901
0	7279535	199.216094031968	0.18090492825101
0	7279905	199.225242860126	0.19005375640901
0	7280349	199.236566730444	0.20137762672701
0	7317269	200.059666581915	0.024233575859
0	7317316	200.060469547242	0.025036541186012
0	7317377	200.061654724079	0.02622171802301
0	7317819	200.071223765428	0.035790759371991
0	7317863	200.07197730965	0.036544303594013
0	7317922	200.073211907592	0.037778901536001
0	7318376	200.082530216801	0.047097210744994
0	7318972	200.095081471396	0.05964846533999
0	7326981	200.273042963345	0.23760995728901
0	7327039	200.274219311627	0.23878630557101
0	7327464	200.283368139785	0.24793513372899
0	7327989	200.294692010103	0.25925900404701
0	7362459	201.061478632285	0.025801723889998
0	7362495	201.062281597612	0.026604689216981
0	7362553	201.063466774449	0.027789866053979
0	7362975	201.073035815798	0.037358907402989
0	7363034	201.07426088287	0.038583974474989
0	7363061	201.074873416406	0.039196508011003
0	7363310	201.080017884797	0.044340976401998
0	7363364	201.081194233079	0.045517324683999
0	7363586	201.086330409335	0.050653500940001
0	7363836	201.09136081775	0.055683909354997
0	7364144	201.097887592848	0.062210684452992
0	7364315	201.101666931555	0.065990023159998
0	7402734	202.057547790008	0.021626979274004
0	7402772	202.058350755335	0.022429944601015
0	7402828	202.059535932172	0.023615121438013
0	7403236	202.069104973521	0.033184162787023
0	7403283	202.069858517743	0.033937707009017
0	7403338	202.071093115685	0.035172304951004
0	7403729	202.080411424894	0.044490614160026
0	7404208	202.091968608407	0.056047797673017
0	7417915	202.42303773788	0.38711692714602
0	7417981	202.424214086162	0.38829327542803
0	7418336	202.43336291432	0.397442103586
0	7418786	202.444686784638	0.40876597390402
0	7443032	203.057514929049	0.021300000868024
0	7443064	203.058317894376	0.022102966195007
0	7443132	203.059503071213	0.023288143032005
0	7443525	203.069072112562	0.032857184381015
0	7443561	203.069825656784	0.033610728603009
0	7443617	203.071050723856	0.034835795675008
0	7443962	203.07922947195	0.043014543769004
0	7444440	203.090289619922	0.054074691741022
0	7444514	203.091791736197	0.055576808016014
0	7444562	203.092968084479	0.056753156298015
0	7444966	203.102116912637	0.065901984456019
0	7445438	203.113440782955	0.077225854774014
0	7478726	204.058417800178	0.021908754549997
0	7478744	204.058698811177	0.022189765549001
0	7478761	204.059220765505	0.02271171987698
0	7478795	204.059875159459	0.023366113830974
0	7478829	204.060405942342	0.023896896713978
0	7479153	204.069023987617	0.032514941988978
0	7479190	204.069974983691	0.033465938062989
0	7479226	204.070728527913	0.034219482284982
0	7479284	204.071963125855	0.035454080226998
0	7479562	204.079790328441	0.043281282812984
0	7479582	204.080347857935	0.043838812307001
0	7479975	204.091347511954	0.054838466325975
0	7513428	205.058103163943	0.021300000867996
0	7513462	205.05890612927	0.022102966194979
0	7513518	205.060091306107	0.023288143031976
0	7513866	205.069660347456	0.032857184380987
0	7513893	205.070413891678	0.03361072860298
0	7513941	205.07164848962	0.034845326544996
0	7514206	205.079206260088	0.042403097012993
0	7514584	205.09026640806	0.053463244984982
0	7520841	205.265693301509	0.228890138434
0	7520901	205.266869649791	0.230066486716
0	7521276	205.276018477949	0.239215314874
0	7521734	205.287342348267	0.250539185192
0	7552689	206.058406194146	0.021300000867996
0	7552706	206.058707968145	0.021601774867008
0	7552724	206.059209159473	0.022102966195007
0	7552767	206.059884316427	0.02277812314901
0	7552791	206.06039433631	0.023288143032005
0	7553116	206.069033144585	0.031926951307014
0	7553176	206.070452472469	0.033346279190994
0	7553204	206.071065006005	0.033958812727008
0	7553234	206.071951519823	0.034845326544996
0	7553500	206.079703295529	0.042597102250994
0	7553533	206.080357014903	0.043250821625008
0	7553912	206.091260479042	0.054154285764014
0	7587109	207.059010998348	0.02160177486698
0	7587126	207.059376220236	0.021966996754998
0	7587171	207.060179185563	0.022769962081981
0	7587180	207.06018734663	0.022778123148981
0	7587243	207.0613643624	0.023955138918978
0	7587520	207.069336174788	0.031926951306986
0	7587595	207.070933403749	0.033524180267989
0	7587634	207.071686947971	0.034277724489982
0	7587667	207.072440492193	0.035031268711975
0	7587907	207.079703295429	0.042294071947993
0	7587950	207.080660045106	0.04325082162498
0	7588309	207.091260478942	0.053851255460984
0	7621097	208.059012254552	0.021300000867996
0	7621138	208.059815219879	0.022102966195007
0	7621199	208.061000396716	0.023288143032005
0	7621556	208.070569438065	0.032857184381015
0	7621585	208.071322982287	0.033610728603009
0	7621619	208.072037142869	0.034324889185001
0	7621624	208.072076526509	0.034364272825002
0	7621674	208.073213491151	0.035501237467003
0	7621901	208.079888381	0.042176127315997
0	7622020	208.08314855321	0.045436299526017
0	7622313	208.091445564513	0.053733310829017
0	7622402	208.093686189627	0.055973935943001
0	7658020	209.059509289993	0.021494006105996
0	7658059	209.06031225532	0.022296971432979
0	7658130	209.061497432157	0.023482148269977
0	7658566	209.071402513099	0.033387229211996
0	7658592	209.072015046635	0.033999762747982
0	7658624	209.072627580171	0.034612296283996
0	7658989	209.081155826143	0.043140542255998
0	7659448	209.09240707987	0.05439179598298
0	7663207	209.183686269359	0.14567098547198
0	7663264	209.184862617641	0.14684733375398
0	7663652	209.194011445799	0.15599616191199
0	7664142	209.205335316117	0.16732003222998
0	7697400	210.059812319296	0.021526766139004
0	7697444	210.060570769367	0.022285216210008
0	7697449	210.060615284623	0.022329731466016
0	7697510	210.061747117649	0.02346156449201
0	7697524	210.06180046146	0.023514908303014
0	7697883	210.070895945807	0.032610392650014
0	7697908	210.071369502809	0.033083949652024
0	7697947	210.072123047031	0.033837493874017
0	7698008	210.073564674259	0.035279121102008
0	7698381	210.08252255035	0.044236997193025
0	7698406	210.083172989723	0.044887436566
0	7698863	210.094730173236	0.05644462007902
0	7734796	211.059855823295	0.021300000868024
0	7734833	211.060658788622	0.022102966195007
0	7734896	211.061843965459	0.023288143032005
0	7735255	211.071413006808	0.032857184381015
0	7735285	211.07216655103	0.033610728603009
0	7735312	211.072920095252	0.034364272825002
0	7735602	211.080731949743	0.042176127315997
0	7736017	211.092289133256	0.053733310829017
0	7740269	211.213566361997	0.17501053957
0	7740315	211.214742710279	0.176186887852
0	7740643	211.223891538437	0.18533571601
0	7741053	211.235215408755	0.196659586328
0	7774849	212.06085128817	0.02202519647301
0	7774885	212.061654253497	0.022828161799993
0	7774937	212.062533500548	0.02370740885101
0	7775365	212.072102541897	0.033276450199992
0	7775395	212.072856086119	0.034029994422013
0	7775466	212.074217825455	0.035391733758019
0	7775781	212.081280901411	0.042454809714002
0	7776271	212.092838084924	0.054011993226993
0	7785186	212.304941423678	0.26611533198101
0	7785231	212.305805741834	0.26697965013702
0	7785632	212.314954569992	0.27612847829499
0	7786103	212.32627844031	0.28745234861302
0	7815593	213.060286831113	0.021460738615986
0	7815632	213.06108979644	0.022263703942997
0	7815639	213.06111389726	0.022287804762982
0	7815699	213.062274973277	0.023448880779995
0	7815708	213.062290245542	0.023464153044984
0	7816062	213.0714390737	0.032612981202988
0	7816086	213.071844014626	0.033017922129005
0	7816127	213.072597558848	0.033771466350998
0	7816193	213.074217826255	0.03539173375799
0	7816451	213.081280902211	0.042454809714002
0	7816544	213.083108134774	0.04428204227699
0	7816910	213.092838085724	0.054011993226993
0	7852834	214.060494601178	0.021668507881003
0	7852864	214.06111389806	0.02228780476301
0	7852872	214.061297566505	0.022471473208014
0	7852937	214.062290246342	0.023464153045012
0	7852953	214.062482743342	0.023656650045012
0	7853296	214.0714390745	0.032612981203016
0	7853326	214.072051784691	0.033225691393994
0	7853362	214.072805328913	0.033979235616016
0	7853421	214.074217827055	0.035391733758019
0	7853667	214.081280903011	0.042454809714002
0	7853759	214.083108135574	0.044282042277018
0	7854111	214.092838086524	0.054011993226993
0	7887866	215.060126094965	0.021300000867996
0	7887911	215.060929060292	0.022102966194979
0	7887978	215.062114237129	0.023288143032005
0	7888425	215.071995605631	0.033169511533998
0	7888455	215.072608139167	0.033782045069984
0	7888486	215.073220672703	0.034394578605998
0	7888905	215.08249269431	0.043666600212987
0	7889436	215.094546913364	0.05572081926698
0	7901790	215.382521828647	0.34369573454998
0	7901852	215.383698176929	0.34487208283198
0	7902246	215.392847005087	0.35402091098999
0	7902741	215.404170875405	0.36534478130798
0	7930010	216.060126095765	0.021300000867996
0	7930061	216.060929061092	0.022102966195007
0	7930126	216.062114237929	0.023288143032005
0	7930565	216.071995606431	0.033169511533998
0	7930595	216.072608139967	0.033782045070012
0	7930629	216.073220673503	0.034394578605998
0	7930970	216.081397944641	0.042571849744007
0	7931362	216.090683494411	0.051857399514006
0	7931418	216.091859842693	0.053033747796007
0	7931461	216.092955128154	0.054129033256999
0	7931790	216.101008670851	0.062182575954012
0	7932242	216.112332541169	0.073506446272006
0	7967117	217.060126096565	0.021300000867996
0	7967163	217.060929061892	0.022102966194979
0	7967174	217.06104866329	0.022222567592991
0	7967223	217.062114238729	0.023288143032005
0	7967240	217.062225011572	0.023398915874992
0	7967604	217.07137383973	0.032547744032996
0	7967628	217.071995607231	0.033169511533998
0	7967656	217.072608140767	0.033782045069984
0	7967685	217.073220674303	0.034394578605998
0	7968032	217.081397945441	0.042571849743979
0	7968096	217.083042900804	0.044216805106998
0	7968505	217.092955128954	0.054129033256999
0	8002546	218.060126097365	0.021300000867996
0	8002589	218.060929062692	0.022102966195007
0	8002650	218.062114239529	0.023288143032005
0	8003018	218.071683280878	0.032857184381015
0	8003050	218.0724368251	0.033610728603009
0	8003083	218.073190369322	0.034364272825002
0	8003384	218.081433943696	0.042607847199008
0	8003787	218.092494091668	0.053667995170997
0	8005416	218.138804610099	0.099978513601997
0	8005468	218.139980958381	0.101154861884
0	8005799	218.149129786539	0.110303690042
0	8006207	218.160453656857	0.12162756036
0	8042348	219.061042397725	0.021946031958009
0	8042385	219.061845363052	0.022748997284992
0	8042449	219.063030539889	0.02393417412199
0	8042857	219.072599581238	0.033503215471001
0	8042925	219.07382464831	0.034728282543
0	8042949	219.074437181846	0.035340816079014
0	8043340	219.08340899707	0.044312631303001
0	8043826	219.094469145042	0.05537277927499
0	8050273	219.252218259012	0.21312189324499
0	8050323	219.253394607294	0.21429824152699
0	8050687	219.262543435452	0.22344706968499
0	8051158	219.27386730577	0.23477094000299
0	8083302	220.060968409904	0.021601774867008
0	8083312	220.061216416721	0.021849781684011
0	8083350	220.062019382048	0.022652747010994
0	8083366	220.062144758186	0.02277812314901
0	8083415	220.063204558885	0.023837923847992
0	8083763	220.071463057327	0.03209642229001
0	8083807	220.072773600234	0.033406965197003
0	8083842	220.073527144456	0.034160509418996
0	8083891	220.074280688678	0.034914053640989
0	8084228	220.082617456662	0.043250821625008
0	8084269	220.083583016066	0.044216381029003
0	8084743	220.095186296659	0.055819661621996
0	8121651	221.061626441264	0.021989536956994
0	8121658	221.061651850247	0.022014945939986
0	8121689	221.062429406591	0.022792502284005
0	8121716	221.062828198529	0.023191294221988
0	8121777	221.064035337245	0.024398432938
0	8122064	221.071977026687	0.032340122379992
0	8122113	221.073183624777	0.033546720469985
0	8122141	221.073937168999	0.034300264692007
0	8122167	221.074690713221	0.035053808914
0	8122403	221.081813031623	0.042176127315997
0	8122462	221.083300897005	0.043663992697986
0	8122791	221.093370215136	0.053733310828989
0	8152863	222.06125948532	0.021300000867996
0	8152902	222.062062450647	0.022102966195007
0	8152972	222.063247627484	0.023288143032005
0	8153364	222.072816668833	0.032857184380987
0	8153430	222.074087777319	0.034128292866995
0	8153460	222.074700310855	0.034740826403009
0	8153765	222.082135611768	0.042176127315997
0	8154265	222.094189830822	0.054230346369991
0	8162700	222.307253765142	0.26729428069001
0	8162751	222.308430113424	0.26847062897201
0	8163115	222.317578941582	0.27761945712999
0	8163552	222.3289028119	0.28894332744801
0	8189381	223.061582065465	0.021300000867996
0	8189417	223.062385030792	0.022102966195007
0	8189433	223.062680619952	0.022398555355011
0	8189488	223.063570207629	0.023288143032005
0	8189507	223.063856968234	0.023574903637012
0	8189820	223.073005796392	0.032723731794988
0	8189832	223.073139248978	0.032857184381015
0	8189862	223.0738927932	0.033610728603009
0	8189911	223.075127391142	0.034845326544996
0	8190131	223.082458191913	0.042176127315997
0	8190205	223.08432966671	0.044047602113011
0	8190516	223.094015375426	0.053733310828989
0	8221629	224.062206419609	0.021601774867008
0	8221637	224.062279884549	0.021675239806996
0	8221673	224.063082849876	0.022478205134007
0	8221699	224.063382767891	0.02277812314901
0	8221741	224.064268026713	0.023663381971005
0	8222047	224.072531596049	0.031926951307014
0	8222108	224.073837068062	0.033232423320015
0	8222140	224.074590612284	0.033985967542009
0	8222188	224.075825210226	0.035220565483996
0	8222426	224.082955226954	0.042350582212009
0	8222466	224.083865181615	0.043260536872992
0	8222803	224.094015374926	0.053410730183998
0	8254044	225.062253554902	0.021326330015
0	8254072	225.06279459325	0.021867368363019
0	8254086	225.063056520229	0.022129295342012
0	8254150	225.064241697066	0.02331447217901
0	8254159	225.064337879611	0.023410654724017
0	8254473	225.07311976969	0.032192544803024
0	8254517	225.074087775819	0.033160550932024
0	8254548	225.074700309355	0.03377308446801
0	8254577	225.075317826859	0.034390601972007
0	8254867	225.083643984106	0.042716759219019
0	8254900	225.084443640008	0.043516415121019
0	8255262	225.09477848034	0.053851255452997
0	8287727	226.062898715692	0.021648910659991
0	8287770	226.063701681019	0.022451875986974
0	8287843	226.064886857856	0.023637052823972
0	8288295	226.074732936609	0.033483131576986
0	8288326	226.075345470145	0.034095665113
0	8288402	226.076570537217	0.035320732184999
0	8288802	226.085762350578	0.044512545545984
0	8289367	226.098047565622	0.056797760589973
0	8293395	226.214709723329	0.173459918297
0	8293411	226.215886071611	0.17463626657897
0	8293431	226.225034899769	0.18378509473698
0	8293448	226.236358770087	0.195108965055

