version 2
run Net10_r-0-20190404-17:14:44-5588
attr configname Net10_r
attr datetime 20190404-17:14:44
attr experiment Net10_r
attr inifile omnetpp.ini
attr iterationvars ""
attr iterationvarsf ""
attr measurement ""
attr network mogp.networks.Net10_r
attr processid 5588
attr repetition 0
attr replication #0
attr resultdir results
attr runnumber 0
attr seedset 0
param **.eventStorage.packetLength "1024 byte"
param **.node[*].operator[*].packetLength "1024 byte"

vector 0 Net10_r.eventStorage "End-to-End Delay" ETV
0	90	5	0
0	91	5	0
0	92	5	0
0	93	5	0
0	94	5	0
0	95	5	0
0	96	5	0
0	97	5	0
0	98	5	0
0	99	5	0
0	100	5	0
0	101	5	0
0	5357	6.001333333083	0
0	5358	6.001333333083	0
0	5359	6.001333333083	0
0	5360	6.001333333083	0
0	5434	6.011831056474	0.010497723391
0	5440	6.011945866619	0.010612533535999
0	5445	6.012328779865	0.010995446782
0	5454	6.012558400155	0.011225067072
0	5459	6.012826503256	0.011493170173
0	5465	6.013170933691	0.011837600608
0	5470	6.013324226647	0.011990893564
0	5555	6.024391793728	0.023058460645
0	11758	7.002444444094	0
0	11759	7.002444444094	0
0	11760	7.002444444094	0
0	11761	7.002444444094	0
0	11846	7.012942167485	0.010497723391
0	11851	7.01305697763	0.010612533536
0	11856	7.013439890876	0.010995446782
0	11861	7.013669511166	0.011225067072
0	11870	7.013937614267	0.011493170173001
0	11875	7.014282044702	0.011837600608001
0	11881	7.014435337658	0.011990893564001
0	11981	7.025502904739	0.023058460645
0	19184	8.003396824646	0
0	19185	8.003396824646	0
0	19186	8.003396824646	0
0	19187	8.003396824646	0
0	19283	8.013894548037	0.010497723391
0	19288	8.014009358182	0.010612533535999
0	19297	8.014392271428	0.010995446781999
0	19302	8.014621891718	0.011225067071999
0	19308	8.014889994819	0.011493170173001
0	19320	8.015234425254	0.011837600608001
0	19325	8.01538771821	0.011990893564001
0	19426	8.026455285291	0.023058460645
0	27666	9.004230157579	0
0	27667	9.004230157579	0
0	27668	9.004230157579	0
0	27669	9.004230157579	0
0	27773	9.01472788097	0.010497723391
0	27778	9.014842691115	0.010612533535999
0	27784	9.015225604361	0.010995446781999
0	27792	9.015455224651	0.011225067071999
0	27797	9.015723327752	0.011493170172999
0	27802	9.016067758187	0.011837600607999
0	27815	9.016221051143	0.011990893563999
0	27933	9.027288618224	0.023058460645
0	37210	10.004230157929	0
0	37211	10.004230157929	0
0	37212	10.004230157929	0
0	37213	10.004230157929	0
0	37328	10.01472788132	0.010497723391
0	37342	10.015225604711	0.010995446782001
0	37349	10.015455225001	0.011225067072001
0	37357	10.015723328102	0.011493170173001
0	37362	10.016067758537	0.011837600608001
0	37367	10.016221051493	0.011990893564001
0	37476	10.025288859687	0.021058701758001
0	37500	10.027288618574	0.023058460645
0	47771	11.004230158429	0
0	47772	11.004230158429	0
0	47773	11.004230158429	0
0	47774	11.004230158429	0
0	47901	11.01472788182	0.010497723391
0	47914	11.015225605211	0.010995446782001
0	47920	11.015455225501	0.011225067072001
0	47925	11.015723328602	0.011493170173001
0	47935	11.016067759037	0.011837600608001
0	47940	11.016221051993	0.011990893564001
0	48058	11.025288860187	0.021058701758001
0	48091	11.027288619074	0.023058460645
0	59394	12.004836218935	0
0	59395	12.004836218935	0
0	59396	12.004836218935	0
0	59397	12.004836218935	0
0	59532	12.015333942326	0.010497723391001
0	59545	12.015831665717	0.010995446782001
0	59556	12.016067758937	0.011231540002001
0	59561	12.016329389108	0.011493170173001
0	59571	12.016680292473	0.011844073538001
0	59576	12.016827112499	0.011990893564001
0	59706	12.025901393623	0.021065174688001
0	59734	12.02789467958	0.023058460645
0	72082	13.004836219735	0
0	72083	13.004836219735	0
0	72084	13.004836219735	0
0	72085	13.004836219735	0
0	72227	13.015333943126	0.010497723391001
0	72241	13.015831666517	0.010995446782001
0	72248	13.016118264787	0.011282045052001
0	72256	13.016329389908	0.011493170173001
0	72265	13.016730798323	0.011894578588
0	72270	13.016827113299	0.011990893564001
0	72413	13.025951899473	0.021115679738001
0	72442	13.02789468038	0.023058460645
0	85835	14.004836220085	0
0	85836	14.004836220085	0
0	85837	14.004836220085	0
0	85838	14.004836220085	0
0	85992	14.015333943476	0.010497723391
0	86005	14.015831666867	0.010995446781999
0	86011	14.016061287157	0.011225067071999
0	86019	14.016329390258	0.011493170172999
0	86028	14.016673820693	0.011837600607999
0	86037	14.016827113649	0.011990893564001
0	86191	14.025894921843	0.021058701757999
0	86219	14.02789468073	0.023058460645
0	100670	15.005312410161	0
0	100671	15.005312410161	0
0	100672	15.005312410161	0
0	100673	15.005312410161	0
0	100838	15.015810133552	0.010497723391
0	100851	15.016307856943	0.010995446781999
0	100862	15.016537477233	0.011225067071999
0	100867	15.016805580334	0.011493170172999
0	100877	15.017150010769	0.011837600607999
0	100882	15.017303303725	0.011990893563999
0	100895	15.017762544305	0.012450134144
0	101048	15.026371111919	0.021058701757999
0	117766	16.005756853605	0
0	117767	16.005756853605	0
0	117768	16.005756853605	0
0	117769	16.005756853605	0
0	117954	16.016254576996	0.010497723391001
0	117968	16.016752300387	0.010995446782001
0	117974	16.016981920677	0.011225067072001
0	117987	16.017250023778	0.011493170173001
0	117996	16.017594454213	0.011837600608001
0	118001	16.017747747169	0.011990893564001
0	118010	16.018206987749	0.012450134144
0	118178	16.026815555363	0.021058701758001
0	135443	17.005756854405	0
0	135444	17.005756854405	0
0	135445	17.005756854405	0
0	135446	17.005756854405	0
0	135638	17.016254577796	0.010497723391001
0	135655	17.016752301187	0.010995446782001
0	135662	17.016981921477	0.011225067072001
0	135671	17.017250024578	0.011493170173001
0	135680	17.017594455013	0.011837600608001
0	135689	17.017747747969	0.011990893564001
0	135699	17.018206988549	0.012450134144
0	135874	17.026815556163	0.021058701758001
0	154505	18.005756855055	0
0	154506	18.005756855055	0
0	154507	18.005756855055	0
0	154508	18.005756855055	0
0	154734	18.016360144974	0.010603289919001
0	154749	18.016857868365	0.01110101331
0	154757	18.016981922127	0.011225067071997
0	154767	18.017355591756	0.011598736701
0	154775	18.017594455663	0.011837600607997
0	154785	18.017853315147	0.012096460092
0	154794	18.018206989199	0.012450134144
0	155006	18.026815556813	0.021058701757998
0	176515	19.006127224425	0
0	176516	19.006127224425	0
0	176517	19.006127224425	0
0	176518	19.006127224425	0
0	176746	19.016879653858	0.010752429432998
0	176757	19.017352291497	0.011225067071997
0	176766	19.017377377249	0.011250152823997
0	176775	19.01787510064	0.011747876215001
0	176780	19.017964825033	0.011837600608001
0	176790	19.018372824031	0.012245599606
0	176799	19.018577358569	0.012450134144
0	176998	19.027185926183	0.021058701757998
0	195906	20.006127224475	0
0	195907	20.006127224475	0
0	195908	20.006127224475	0
0	195909	20.006127224475	0
0	196123	20.016624947866	0.010497723391001
0	196136	20.017122671257	0.010995446782001
0	196147	20.017352291547	0.011225067072001
0	196156	20.017620394648	0.011493170173001
0	196170	20.017964825083	0.011837600608001
0	196175	20.018118118039	0.011990893564001
0	196187	20.018577358619	0.012450134144
0	196377	20.027185926233	0.021058701758001
0	217167	21.006460556808	0
0	217168	21.006460556808	0
0	217169	21.006460556808	0
0	217170	21.006460556808	0
0	217438	21.017122670257	0.010662113448998
0	217453	21.017620393648	0.011159836839997
0	217458	21.01768562388	0.011225067071997
0	217468	21.018118117039	0.011657560230997
0	217480	21.018298157416	0.011837600607997
0	217489	21.01861584043	0.012155283621997
0	217499	21.018910690952	0.012450134143997
0	217744	21.027519258566	0.021058701757998
0	237027	22.006778015675	0
0	237028	22.006778015675	0
0	237029	22.006778015675	0
0	237030	22.006778015675	0
0	237278	22.017275739066	0.010497723391001
0	237296	22.017773462457	0.010995446782001
0	237310	22.018271185848	0.011493170173001
0	237328	22.018768909239	0.011990893564001
0	239936	22.124122997579	0.117344981904
0	239952	22.124735531115	0.11795751544
0	239968	22.125348064651	0.118570048976
0	240187	22.133956632265	0.12717861659
0	260167	23.007081045878	0
0	260168	23.007081045878	0
0	260169	23.007081045878	0
0	260170	23.007081045878	0
0	260417	23.017773462357	0.010692416478999
0	260432	23.018271185748	0.011190139869999
0	260438	23.01830611295	0.011225067072001
0	260450	23.018768909139	0.011687863260999
0	260455	23.018918646486	0.011837600608001
0	260467	23.01926663253	0.012185586651999
0	260472	23.019531180022	0.012450134144
0	260693	23.028139747636	0.021058701758001
0	282463	24.00737089935	0
0	282464	24.00737089935	0
0	282465	24.00737089935	0
0	282466	24.00737089935	0
0	282663	24.017868622741	0.010497723390998
0	282678	24.018366346132	0.010995446781997
0	282693	24.018864069523	0.011493170172997
0	282708	24.019361792914	0.011990893564001
0	288071	24.260028160342	0.252657260992
0	288091	24.260640693878	0.253269794528
0	288108	24.261253227414	0.253882328064
0	288313	24.269861795028	0.262490895678
0	307376	25.00737090015	0
0	307377	25.00737090015	0
0	307378	25.00737090015	0
0	307379	25.00737090015	0
0	307664	25.017868623541	0.010497723390998
0	307681	25.018366346932	0.010995446781997
0	307694	25.018864070323	0.011493170172997
0	307710	25.019361793714	0.011990893564001
0	308873	25.062447092502	0.055076192351997
0	308890	25.063059626038	0.055688725888
0	308925	25.06428469311	0.05691379296
0	309193	25.074118327796	0.066747427646
0	333452	26.0073709014	0
0	333453	26.0073709014	0
0	333454	26.0073709014	0
0	333455	26.0073709014	0
0	333656	26.017868624791	0.010497723391001
0	333671	26.018366348182	0.010995446782001
0	333687	26.018864071573	0.011493170173001
0	333702	26.019361794964	0.011990893564001
0	335492	26.114270977234	0.106900075834
0	335508	26.11488351077	0.10751260937
0	335535	26.116108577842	0.108737676442
0	335724	26.125942212528	0.118571311128
0	357497	27.007627310056	0
0	357498	27.007627310056	0
0	357499	27.007627310056	0
0	357500	27.007627310056	0
0	357799	27.018351249461	0.010723939405
0	357815	27.018848972852	0.011221662796
0	357832	27.019346696243	0.011719386187
0	357853	27.019844419634	0.012217109578
0	363564	27.227244412146	0.21961710209
0	363580	27.227856945682	0.220229635626
0	363618	27.229082012754	0.221454702698
0	363894	27.23891564744	0.231288337384
0	385181	28.007874222636	0
0	385182	28.007874222636	0
0	385183	28.007874222636	0
0	385184	28.007874222636	0
0	385425	28.018371946027	0.010497723391001
0	385444	28.018869669418	0.010995446782001
0	385460	28.019367392809	0.011493170173001
0	385476	28.0198651162	0.011990893564001
0	386138	28.049264417458	0.041390194822
0	386153	28.049876950994	0.042002728358003
0	386183	28.051102018066	0.043227795430003
0	386405	28.060935652752	0.053061430116003
0	411938	29.008112317474	0
0	411939	29.008112317474	0
0	411940	29.008112317474	0
0	411941	29.008112317474	0
0	412264	29.018934267763	0.010821950289003
0	412280	29.019431991154	0.011319673680003
0	412295	29.019929714545	0.011817397071002
0	412311	29.020427437936	0.012315120462002
0	418341	29.228391474258	0.220279156784
0	418354	29.229004007794	0.22089169032
0	418397	29.230229074866	0.222116757392
0	418683	29.240062709552	0.231950392078
0	439527	30.008342200481	0
0	439528	30.008342200481	0
0	439529	30.008342200481	0
0	439530	30.008342200481	0
0	439785	30.018839923872	0.010497723391001
0	439804	30.019337647263	0.010995446782001
0	439820	30.019835370654	0.011493170173001
0	439851	30.020830817436	0.012488616955
0	440096	30.030902937735	0.022560737254
0	450092	30.37505425365	0.366712053169
0	450131	30.376279320722	0.367937120241
0	450432	30.386112955408	0.377770754927
0	468968	31.008564421703	0
0	468969	31.008564421703	0
0	468970	31.008564421703	0
0	468971	31.008564421703	0
0	469299	31.019497483104	0.010933061401001
0	469315	31.019995206495	0.011430784792001
0	469332	31.020492929886	0.011928508183001
0	469369	31.021488376668	0.012923954965
0	469691	31.031560496967	0.022996075264
0	480289	31.382059386834	0.373494965131
0	480330	31.383284453906	0.374720032203
0	480631	31.393118088592	0.384553666889
0	497320	32.008779473416	0
0	497321	32.008779473416	0
0	497322	32.008779473416	0
0	497323	32.008779473416	0
0	497676	32.019842536063	0.011063062647004
0	497694	32.020340259454	0.011560786038004
0	497707	32.020837982845	0.012058509429004
0	497745	32.021833429627	0.013053956211003
0	498086	32.031905549926	0.023126076510003
0	520507	32.686755818514	0.677976345098
0	520551	32.687980885586	0.67920141217
0	520896	32.697814520272	0.689035046856
0	531825	33.008987805149	0
0	531826	33.008987805149	0
0	531827	33.008987805149	0
0	531828	33.008987805149	0
0	532211	33.019855975323	0.010868170174
0	532231	33.020353698714	0.011365893564999
0	532251	33.020851422105	0.011863616955999
0	532292	33.021846868887	0.012859063737999
0	532649	33.031918989186	0.022931184036999
0	545827	33.46528594277	0.456298137621
0	545869	33.466511009842	0.457523204693
0	546226	33.476344644528	0.467356839379
0	565162	34.009189825251	0
0	565163	34.009189825251	0
0	565164	34.009189825251	0
0	565165	34.009189825251	0
0	566113	34.035535718867	0.026345893616003
0	566131	34.036033442258	0.026843617007003
0	566149	34.036531165649	0.027341340398003
0	566191	34.037526612431	0.028336787180002
0	566553	34.04759873273	0.038408907479003
0	587031	34.617461523986	0.608271698735
0	587073	34.618686591058	0.609496765807
0	587427	34.628520225744	0.619330400493
0	600197	35.009385901782	0
0	600198	35.009385901782	0
0	600199	35.009385901782	0
0	600200	35.009385901782	0
0	600680	35.022521867698	0.013135965916
0	600700	35.023019591089	0.013633689306999
0	600716	35.02351731448	0.014131412697999
0	600754	35.024512761262	0.015126859480006
0	601122	35.034584881561	0.025198979779006
0	625576	35.70715868453	0.697772782748
0	625619	35.708383751602	0.69899784982
0	625986	35.718217386288	0.708831484506
0	636585	36.009576375472	0
0	636586	36.009576375472	0
0	636587	36.009576375472	0
0	636588	36.009576375472	0
0	640451	36.114526987552	0.10495061208
0	640471	36.115024710943	0.105448335471
0	640494	36.115522434334	0.105946058862
0	640530	36.116517881116	0.106941505644
0	640907	36.126590001415	0.117013625943
0	654982	36.512027750834	0.502451375362
0	655028	36.513252817906	0.503676442434
0	655395	36.523086452592	0.51351007712
0	673383	37.009761559657	0
0	673384	37.009761559657	0
0	673385	37.009761559657	0
0	673386	37.009761559657	0
0	676297	37.087783892723	0.078022333065995
0	676315	37.088281616114	0.078520056457002
0	676334	37.088779339505	0.079017779848002
0	676375	37.089774786287	0.080013226630001
0	676752	37.099846906586	0.090085346929001
0	697386	37.653177728402	0.643416168745
0	697436	37.654402795474	0.644641235817
0	697812	37.66423643016	0.654474870503
0	710684	38.009941738837	0
0	710685	38.009941738837	0
0	710686	38.009941738837	0
0	710687	38.009941738837	0
0	713169	38.074271653685	0.064329914848003
0	713189	38.074769377076	0.064827638239002
0	713209	38.075267100467	0.065325361630002
0	713250	38.076262547249	0.066320808412001
0	713634	38.086334667548	0.076392928711002
0	739218	38.763088495634	0.753146756797
0	739270	38.764313562706	0.754371823869
0	739646	38.774147197392	0.764205458555
0	748605	39.010117174633	0
0	748606	39.010117174633	0
0	748607	39.010117174633	0
0	748608	39.010117174633	0
0	758115	39.258853324265	0.24873614963199
0	758138	39.259351047656	0.24923387302299
0	758152	39.259848771047	0.24973159641399
0	758193	39.260844217829	0.25072704319599
0	758584	39.270916338128	0.26079916349499
0	772612	39.637786385042	0.627669210409
0	772663	39.639011452114	0.628894277481
0	773053	39.6488450868	0.638727912167
0	786905	40.010117174983	0
0	786906	40.010117174983	0
0	786907	40.010117174983	0
0	786908	40.010117174983	0
0	798430	40.307058785711	0.296941610728
0	798450	40.307556509102	0.297439334119
0	798474	40.308054232493	0.29793705751
0	798513	40.309049679275	0.298932504292
0	798903	40.319121799574	0.309004624591
0	817447	40.79731236869	0.787195193707
0	817475	40.797924902226	0.787807727243
0	817501	40.798537435762	0.788420260779
0	825677	41.010117176983	0
0	825678	41.010117176983	0
0	825679	41.010117176983	0
0	825680	41.010117176983	0
0	840329	41.385625374008	0.375508197025
0	840350	41.386123097399	0.376005920416
0	840371	41.38662082079	0.376503643807
0	840406	41.387616267572	0.377499090589
0	840805	41.397688387871	0.387571210888
0	863476	41.983177294386	0.97306011740299
0	863499	41.983789827922	0.97367265093899
0	863523	41.984402361458	0.974285184475
0	864546	42.010117178983	0
0	864547	42.010117178983	0
0	864548	42.010117178983	0
0	864549	42.010117178983	0
0	888506	42.632422468463	0.62230528948
0	888525	42.632920191854	0.622803012871
0	888544	42.633417915245	0.623300736262
0	888581	42.634413362027	0.624296183044
0	888951	42.644485482326	0.634368303343
0	898282	42.903815198994	0.89369802001099
0	898301	42.90442773253	0.89431055354699
0	898324	42.905040266066	0.894923087083
0	902242	43.010117180983	0
0	902243	43.010117180983	0
0	902244	43.010117180983	0
0	902245	43.010117180983	0
0	927683	43.715468567279	0.70535138629599
0	927699	43.71596629067	0.70584910968699
0	927718	43.716464014061	0.70634683307799
0	927754	43.717459460843	0.70734227985999
0	928116	43.727531581142	0.71741440015899
0	938328	44.010117182983	0
0	938329	44.010117182983	0
0	938330	44.010117182983	0
0	938331	44.010117182983	0
0	941113	44.087229990546	1.077112809563
0	941139	44.087842524082	1.077725343099
0	941168	44.088455057618	1.078337876635
0	966993	44.80100328305	0.790886100067
0	967012	44.801501006441	0.791383823458
0	967028	44.801998729832	0.791881546849
0	967069	44.802994176614	0.792876993631
0	967430	44.813066296913	0.80294911393
0	974547	45.010117184983	0
0	974548	45.010117184983	0
0	974549	45.010117184983	0
0	984025	45.273707449778	1.263590266795
0	984048	45.274319983314	1.264202800331
0	984072	45.27493251685	1.264815333867
0	1010520	46.010117186983	0
0	1010521	46.010117186983	0
0	1010522	46.010117186983	0
0	1011877	46.047800377505	1.037683192522
0	1011896	46.048298100896	1.038180915913
0	1011915	46.048795824287	1.038678639304
0	1011934	46.049293547678	1.039176362695
0	1017198	46.195570421458	1.185453236475
0	1017229	46.196182954994	1.186065770011
0	1017252	46.19679548853	1.186678303547
0	1017539	46.204791522608	1.194674337625
0	1017563	46.205404056144	1.195286871161
0	1046751	47.010117188983	0
0	1046752	47.010117188983	0
0	1046753	47.010117188983	0
0	1051175	47.133335093276	1.123217906293
0	1051194	47.133832816667	1.123715629684
0	1051215	47.134330540058	1.124213353075
0	1051235	47.134828263449	1.124711076466
0	1060374	47.389398283122	1.379281096139
0	1060402	47.390010816658	1.379893629675
0	1060426	47.390623350194	1.380506163211
0	1060715	47.398619384272	1.388502197289
0	1060741	47.399231917808	1.389114730825
0	1082634	48.010117190983	0
0	1082635	48.010117190983	0
0	1082636	48.010117190983	0
0	1090588	48.224344766348	1.214227577365
0	1090605	48.224842489739	1.214725300756
0	1090627	48.22534021313	1.215223024147
0	1090646	48.225837936521	1.215720747538
0	1104213	48.60711495269	1.596997763707
0	1104236	48.607727486226	1.597610297243
0	1104258	48.608340019762	1.598222830779
0	1104532	48.61633605384	1.606218864857
0	1104554	48.616948587376	1.606831398393
0	1118418	49.010117192983	0
0	1118419	49.010117192983	0
0	1118420	49.010117192983	0
0	1123314	49.142146699352	1.132029508369
0	1123334	49.142644422743	1.13252723176
0	1123355	49.143142146134	1.133024955151
0	1123372	49.143639869525	1.133522678542
0	1154726	49.986285570488	0.976168377505
0	1154746	49.986783293879	0.976666100896
0	1154769	49.98728101727	0.977163824287
0	1154789	49.987778740661	0.977661547678
0	1155644	50.010117194983	0
0	1155645	50.010117194983	0
0	1155646	50.010117194983	0
0	1155647	50.010117194983	0
0	1164185	50.23951682613	2.229399635147
0	1164212	50.240129359666	2.230012168683
0	1164231	50.240741893202	2.230624702219
0	1164533	50.24873792728	2.238620736297
0	1164560	50.249350460816	2.239233269833
0	1191975	50.983723246052	0.97360605106901
0	1191994	50.984220969443	0.97410377446
0	1192013	50.984718692834	0.974601497851
0	1192051	50.985714139616	0.975596944633
0	1192396	50.995786259915	0.985669064932
0	1192913	51.010117196983	0
0	1192914	51.010117196983	0
0	1192915	51.010117196983	0
0	1192916	51.010117196983	0
0	1221550	51.822884883278	0.812767686295
0	1221574	51.823382606669	0.813265409686
0	1221596	51.82388033006	0.813763133077
0	1221635	51.824875776842	0.814758579859
0	1222011	51.834947897141	0.824830700158
0	1226764	51.962573662898	2.952456469915
0	1226786	51.963186196434	2.953069003451
0	1226813	51.96379872997	2.953681536987
0	1227111	51.971794764048	2.961677571065
0	1227136	51.972407297584	2.962290104601
0	1228568	52.010117198983	0
0	1228569	52.010117198983	0
0	1228570	52.010117198983	0
0	1228571	52.010117198983	0
0	1256247	52.734216412199	0.724099213216
0	1256267	52.73471413559	0.724596936607
0	1256288	52.735211858981	0.725094659998
0	1256335	52.736207305763	0.72609010678
0	1256729	52.746279426062	0.736162227079
0	1267124	53.010117200983	0
0	1267125	53.010117200983	0
0	1267126	53.010117200983	0
0	1267127	53.010117200983	0
0	1286182	53.495745103506	3.485627908523
0	1286207	53.496357637042	3.486240442059
0	1286230	53.496970170578	3.486852975595
0	1304369	53.981013506654	0.970896305671
0	1304388	53.981511230045	0.971394029062
0	1304404	53.982008953436	0.971891752453
0	1304443	53.983004400218	0.972887199235
0	1304806	53.993076520517	0.982959319534
0	1305448	54.010117202983	0
0	1305449	54.010117202983	0
0	1305450	54.010117202983	0
0	1305451	54.010117202983	0
0	1344608	55.010117204983	0
0	1344609	55.010117204983	0
0	1344610	55.010117204983	0
0	1344611	55.010117204983	0
0	1347014	55.071027732944	1.060910529961
0	1347033	55.071525456335	1.061408253352
0	1347055	55.072023179726	1.061905976743
0	1347093	55.073018626508	1.062901423525
0	1347490	55.083090746807	1.072973543824
0	1353021	55.224314742098	4.214197545115
0	1353045	55.224927275634	4.214810078651
0	1353070	55.22553980917	4.215422612187
0	1383884	56.010117206983	0
0	1383885	56.010117206983	0
0	1383886	56.010117206983	0
0	1383887	56.010117206983	0
0	1395763	56.317824827399	1.307707622416
0	1395782	56.31832255079	1.308205345807
0	1395798	56.318820274181	1.308703069198
0	1395835	56.319815720963	1.30969851598
0	1396195	56.329887841262	1.319770636279
0	1415385	56.852428880786	4.842311681803
0	1415411	56.853041414322	4.842924215339
0	1415433	56.853653947858	4.843536748875
0	1421078	57.010117208983	0
0	1421079	57.010117208983	0
0	1421080	57.010117208983	0
0	1421081	57.010117208983	0
0	1435352	57.406843606907	1.396726399924
0	1435369	57.407341330298	1.397224123315
0	1435391	57.407839053689	1.397721846706
0	1435428	57.408834500471	1.398717293488
0	1435793	57.41890662077	1.408789413787
0	1448543	57.773066785394	4.762949584411
0	1448573	57.77367931893	4.763562117947
0	1448596	57.774291852466	4.764174651483
0	1457123	58.010117210983	0
0	1457124	58.010117210983	0
0	1457125	58.010117210983	0
0	1457126	58.010117210983	0
0	1469836	58.3639656878	1.353848478817
0	1469858	58.364463411191	1.354346202208
0	1469878	58.364961134582	1.354843925599
0	1469918	58.365956581364	1.355839372381
0	1470284	58.376028701663	1.36591149268
0	1492532	58.993846122642	4.983728919659
0	1492555	58.994458656178	4.984341453195
0	1492577	58.995071189714	4.984953986731
0	1493148	59.010117212983	0
0	1493149	59.010117212983	0
0	1493150	59.010117212983	0
0	1493151	59.010117212983	0
0	1514780	59.610762782255	1.600645571272
0	1514796	59.611260505646	1.601143294663
0	1514815	59.611758229037	1.601641018054
0	1514851	59.612753675819	1.602636464836
0	1515226	59.622825796118	1.612708585135
0	1525551	59.91448402725	4.904366822267
0	1525571	59.915096560786	4.904979355803
0	1525594	59.915709094322	4.905591889339
0	1528983	60.010117214983	0
0	1528984	60.010117214983	0
0	1528985	60.010117214983	0
0	1545983	60.482276439896	1.472159226913
0	1546002	60.482774163287	1.472656950304
0	1546020	60.483271886678	1.473154673695
0	1546057	60.48426733346	1.474150120477
0	1546429	60.494339453759	1.484222240776
0	1565013	61.010117216983	0
0	1565014	61.010117216983	0
0	1565015	61.010117216983	0
0	1569758	61.141388699858	5.131271492875
0	1569780	61.142001233394	5.131884026411
0	1569800	61.14261376693	5.132496559947
0	1581390	61.465280137121	1.455162922138
0	1581409	61.465777860512	1.455660645529
0	1581428	61.466275583903	1.45615836892
0	1581448	61.466773307294	1.456656092311
0	1600793	62.010117218983	0
0	1600794	62.010117218983	0
0	1600795	62.010117218983	0
0	1618196	62.49631288149	5.486195672507
0	1618215	62.496925415026	5.486808206043
0	1618238	62.497537948562	5.487420739579
0	1621916	62.59959174521	1.589474528227
0	1621936	62.600089468601	1.589972251618
0	1621959	62.600587191992	1.590469975009
0	1621978	62.601084915383	1.5909676984
0	1636645	63.010117220983	0
0	1636646	63.010117220983	0
0	1636647	63.010117220983	0
0	1650681	63.416950786098	5.406833575115
0	1650701	63.417563319634	5.407446108651
0	1650724	63.41817585317	5.408058642187
0	1650750	63.418844446796	1.408727227813
0	1650766	63.419342170187	1.409224951204
0	1650786	63.419839893578	1.409722674595
0	1650804	63.420337616969	1.410220397986
0	1670808	64.010117222983	0
0	1670809	64.010117222983	0
0	1670810	64.010117222983	0
0	1684552	64.41628212236	1.406164901377
0	1684571	64.416779845751	1.406662624768
0	1684590	64.417277569142	1.407160348159
0	1684606	64.417775292533	1.40765807155
0	1699445	64.855792062162	5.845674849179
0	1699464	64.856404595698	5.846287382715
0	1699488	64.857017129234	5.846899916251
0	1704685	65.010117224983	0
0	1704686	65.010117224983	0
0	1704687	65.010117224983	0
0	1708637	65.126533401317	1.116416178334
0	1708653	65.127031124708	1.116913901725
0	1708671	65.127528848099	1.117411625116
0	1708691	65.12802657149	1.117909348507
0	1735663	65.924881720481	0.91476449549799
0	1735682	65.925379443872	0.915262218889
0	1735698	65.925877167263	0.91575994227999
0	1735717	65.926374890654	0.916257665671
0	1738587	66.010117226983	0
0	1738588	66.010117226983	0
0	1738589	66.010117226983	0
0	1743917	66.167226362738	6.157109147755
0	1743944	66.167838896274	6.157721681291
0	1743966	66.16845142981	6.158334214827
0	1744234	66.176447463888	6.166330248905
0	1744260	66.177059997424	6.166942782441
0	1766417	66.831236015492	0.821118788509
0	1766433	66.831733738883	0.8216165119
0	1766451	66.832231462274	0.822114235291
0	1766472	66.832729185665	0.822611958682
0	1772522	67.010117228983	0
0	1772523	67.010117228983	0
0	1772524	67.010117228983	0
0	1779721	67.222621645266	6.212504428283
0	1779741	67.223234178802	6.213116961819
0	1779764	67.223846712338	6.213729495355
0	1780037	67.231842746416	6.221725529433
0	1780067	67.232455279952	6.222338062969
0	1790326	67.536012337148	0.525895108165
0	1790345	67.536510060539	0.52639283155601
0	1790364	67.53700778393	0.526890554947
0	1790385	67.537505507321	0.52738827833801
0	1806407	68.010117230983	0
0	1806408	68.010117230983	0
0	1806409	68.010117230983	0
0	1824511	68.533450012712	0.523332781729
0	1824530	68.533947736103	0.52383050512
0	1824551	68.534445459494	0.524328228511
0	1824573	68.534943182885	0.524825951902
0	1836103	68.845835515666	6.835718296683
0	1836127	68.846448049202	6.836330830219
0	1836156	68.847060582738	6.836943363755
0	1836455	68.855056616816	6.844939397833
0	1836481	68.855669150352	6.845551931369
0	1842233	69.010117232983	0
0	1842234	69.010117232983	0
0	1842235	69.010117232983	0
0	1850615	69.236235440804	0.226118207821
0	1850635	69.236733164195	0.22661593121201
0	1850653	69.237230887586	0.227113654603
0	1850674	69.237728610977	0.22761137799401
0	1879407	70.010117234983	0
0	1879408	70.010117234983	0
0	1879409	70.010117234983	0
0	1879410	70.010117234983	0
0	1887682	70.233673116368	0.223555881385
0	1887703	70.234170839759	0.224053604776
0	1887722	70.23466856315	0.224551328167
0	1887758	70.235664009932	0.225546774949
0	1888145	70.245736130231	0.235618895248
0	1892849	70.380232023346	7.370114802363
0	1892872	70.380844556882	7.370727335899
0	1892894	70.381457090418	7.371339869435
0	1893127	70.389453124496	7.379335903513
0	1893145	70.390065658032	7.379948437049
0	1914245	71.010117236983	0
0	1914246	71.010117236983	0
0	1914247	71.010117236983	0
0	1914248	71.010117236983	0
0	1914761	71.025442220249	0.015324983266012
0	1914780	71.02593994364	0.015822706657005
0	1914796	71.026437667031	0.016320430048012
0	1914833	71.027433113813	0.017315876830011
0	1915181	71.037505234112	0.027387997129011
0	1951021	72.010117238983	0
0	1951022	72.010117238983	0
0	1951023	72.010117238983	0
0	1951024	72.010117238983	0
0	1951790	72.029350299896	0.019233060912995
0	1951810	72.029848023287	0.019730784304002
0	1951829	72.030345746678	0.020228507694995
0	1951871	72.03134119346	0.021223954476994
0	1952181	72.041413313759	0.031296074775994
0	1958704	72.268060381298	8.257943158315
0	1958727	72.268672914834	8.258555691851
0	1958749	72.26928544837	8.259168225387
0	1959051	72.277281482448	8.267164259465
0	1959079	72.277894015984	8.267776793001
0	1987842	73.010117240983	0
0	1987843	73.010117240983	0
0	1987844	73.010117240983	0
0	1987845	73.010117240983	0
0	1995477	73.205154611625	0.19503737064201
0	1995497	73.205652335016	0.195535094033
0	1995517	73.206150058407	0.19603281742401
0	1995568	73.207145505189	0.19702826420601
0	1995959	73.217217625488	0.20710038450501
0	2025438	74.010117242983	0
0	2025439	74.010117242983	0
0	2025440	74.010117242983	0
0	2025441	74.010117242983	0
0	2026782	74.047470303378	9.037353078395
0	2026807	74.048082836914	9.037965611931
0	2026830	74.04869537045	9.038578145467
0	2027126	74.056691404528	9.046574179545
0	2027156	74.057303938064	9.047186713081
0	2031387	74.174222053902	0.164104810919
0	2031408	74.174719777293	0.16460253430999
0	2031432	74.175217500684	0.165100257701
0	2031470	74.176212947466	0.166095704483
0	2031844	74.186285067765	0.176167824782
0	2063872	75.010117244983	0
0	2063873	75.010117244983	0
0	2063874	75.010117244983	0
0	2063875	75.010117244983	0
0	2075715	75.311520002337	0.30140275735401
0	2075734	75.312017725728	0.301900480745
0	2075755	75.312515449119	0.30239820413601
0	2075776	75.31301317251	0.302895927527
0	2090727	75.693960448146	9.683843221163
0	2090749	75.694572981682	9.684455754699
0	2090771	75.695185515218	9.685068288235
0	2091090	75.703181549296	9.693064322313
0	2091121	75.703794082832	9.693676855849
0	2103170	76.010117246983	0
0	2103171	76.010117246983	0
0	2103172	76.010117246983	0
0	2103173	76.010117246983	0
0	2109298	76.164617894511	0.154500647528
0	2109319	76.165115617902	0.154998370919
0	2109338	76.165613341293	0.15549609431
0	2109357	76.166111064684	0.155993817701
0	2140892	77.010117248983	0
0	2140893	77.010117248983	0
0	2140894	77.010117248983	0
0	2140895	77.010117248983	0
0	2151615	77.325806565714	0.31568931673101
0	2151631	77.326304289105	0.316187040122
0	2151650	77.326802012496	0.31668476351301
0	2151668	77.327299735887	0.317182486904
0	2161341	77.588526674994	10.578409446011
0	2161372	77.58913920853	10.579021979547
0	2161394	77.589751742066	10.579634513083
0	2161689	77.597747776144	10.587630547161
0	2161715	77.59836030968	10.588243080697
0	2176172	78.010117250983	0
0	2176173	78.010117250983	0
0	2176174	78.010117250983	0
0	2176175	78.010117250983	0
0	2177961	78.058375170276	0.048257919292993
0	2177977	78.058872893667	0.048755642684
0	2177998	78.059370617058	0.049253366074993
0	2178019	78.059868340449	0.049751089466
0	2213454	79.010117252983	0
0	2213455	79.010117252983	0
0	2213456	79.010117252983	0
0	2213457	79.010117252983	0
0	2215155	79.05581284584	0.045695592857001
0	2215177	79.056310569231	0.046193316248008
0	2215196	79.056808292622	0.046691039639001
0	2215212	79.057306016013	0.047188763030007
0	2217647	79.122923182674	11.112805951691
0	2217678	79.12353571621	11.113418485227
0	2217706	79.124148249746	11.114031018763
0	2218008	79.132144283824	11.122027052841
0	2218030	79.13275681736	11.122639586377
0	2247383	80.010117254983	0
0	2247384	80.010117254983	0
0	2247385	80.010117254983	0
0	2247386	80.010117254983	0
0	2247756	80.021105871935	0.010988616951991
0	2247775	80.021603595326	0.011486340342998
0	2247792	80.022101318717	0.011984063733991
0	2247811	80.022599042108	0.012481787124997
0	2283516	81.010117256983	0
0	2283517	81.010117256983	0
0	2283518	81.010117256983	0
0	2283519	81.010117256983	0
0	2283889	81.019939543666	12.009822310683
0	2283915	81.020552077202	12.010434844219
0	2283936	81.021105873935	0.010988616952005
0	2283945	81.021164610738	12.011047377755
0	2283958	81.021603597326	0.011486340342998
0	2283977	81.022101320717	0.011984063734005
0	2284001	81.022599044108	0.012481787124997
0	2284256	81.029160644816	12.019043411833
0	2284278	81.029773178352	12.019655945369
0	2318439	82.010117258983	0
0	2318440	82.010117258983	0
0	2318441	82.010117258983	0
0	2318442	82.010117258983	0
0	2318855	82.021105875935	0.010988616951991
0	2318877	82.021603599326	0.011486340342998
0	2318896	82.022101322717	0.011984063733991
0	2318912	82.022599046108	0.012481787124997
0	2338733	82.553110984274	12.542993749291
0	2338760	82.55372351781	12.543606282827
0	2338786	82.554336051346	12.544218816363
0	2355099	83.010117260983	0
0	2355100	83.010117260983	0
0	2355101	83.010117260983	0
0	2355102	83.010117260983	0
0	2355472	83.021105877935	0.010988616952005
0	2355488	83.021603601326	0.011486340342998
0	2355506	83.022101324717	0.011984063734005
0	2355525	83.022599048108	0.012481787124997
0	2388290	84.010117262983	0
0	2388291	84.010117262983	0
0	2388292	84.010117262983	0
0	2388293	84.010117262983	0
0	2388598	84.020614986374	0.010497723390998
0	2388616	84.021112709765	0.01099544678199
0	2388636	84.021610433156	0.011493170172997
0	2388660	84.022108156547	0.01199089356399
0	2404835	84.454415080018	13.444297843035
0	2404861	84.455027613554	13.444910376571
0	2404889	84.45564014709	13.445522910107
0	2411784	85.010783930703	0
0	2411785	85.010783930703	0
0	2411786	85.010783930703	0
0	2411913	85.021375675014	0.010591744311
0	2411929	85.021967419325	0.011183488621995
0	2411946	85.022493461773	0.011709531069997
0	2411951	85.022559163636	0.011775232933005
0	2411971	85.023742652258	0.012958721554995
0	2412066	85.03178680732	0.021002876617004
0	2412078	85.03235665101	0.021572720307006
0	2420050	85.903056892658	13.892939653675
0	2420056	85.903669426194	13.893552187211
0	2420063	85.90428195973	13.894164720747
0	2420893	86.010783930903	0
0	2420894	86.010783930903	0
0	2420895	86.010783930903	0
0	2420995	86.021375675214	0.010591744311
0	2421009	86.021967419525	0.011183488621995
0	2421017	86.022493461973	0.011709531069997
0	2421025	86.022559163836	0.01177523293299
0	2421041	86.023742652458	0.012958721554995
0	2421110	86.03178680752	0.02100287661699
0	2421119	86.03235665121	0.021572720306992
0	2428510	87.010783931103	0
0	2428511	87.010783931103	0
0	2428512	87.010783931103	0
0	2428610	87.021375675414	0.010591744311
0	2428625	87.021967419725	0.011183488622009
0	2428635	87.022493462173	0.011709531070011
0	2428640	87.022559164036	0.011775232933005
0	2428656	87.023742652658	0.012958721555009
0	2428725	87.03178680772	0.021002876617004
0	2428734	87.03235665141	0.021572720307006
0	2430578	87.275132013298	14.265014772315
0	2430584	87.275744546834	14.265627305851
0	2430591	87.27635708037	14.266239839387
0	2436177	88.010783931303	0
0	2436178	88.010783931303	0
0	2436179	88.010783931303	0
0	2436277	88.021375675614	0.010591744311
0	2436291	88.021967419925	0.011183488622009
0	2436302	88.022493462373	0.011709531069997
0	2436307	88.022559164236	0.011775232933005
0	2436323	88.023742652858	0.012958721555009
0	2436394	88.03178680792	0.021002876617004
0	2436403	88.03235665161	0.021572720307006
0	2440798	88.615355390066	14.605238147083
0	2440805	88.615967923602	14.605850680619
0	2440811	88.616580457138	14.606463214155
0	2443818	89.010783931503	0
0	2443819	89.010783931503	0
0	2443820	89.010783931503	0
0	2443918	89.021375675814	0.010591744311
0	2443933	89.021967420125	0.011183488621995
0	2443944	89.022493462573	0.011709531069997
0	2443949	89.022559164436	0.011775232933005
0	2443965	89.023742653058	0.012958721554995
0	2444032	89.03178680812	0.021002876617004
0	2444041	89.03235665181	0.021572720307006
0	2449073	89.698314681714	14.688197436731
0	2449086	89.699539748786	14.689422503803
0	2449155	89.7081483164	14.698031071417
0	2449169	89.709373383472	14.699256138489
0	2451484	90.010783931703	0
0	2451485	90.010783931703	0
0	2451486	90.010783931703	0
0	2451487	90.010783931703	0
0	2451581	90.021375676014	0.010591744311
0	2451595	90.021967420325	0.011183488621995
0	2451606	90.022493462773	0.011709531069997
0	2451618	90.023063306463	0.012279374759999
0	2451627	90.023633150153	0.01284921845
0	2451693	90.03178680832	0.02100287661699
0	2451702	90.03235665201	0.021572720306992
0	2459099	91.010783931903	0
0	2459100	91.010783931903	0
0	2459101	91.010783931903	0
0	2459102	91.010783931903	0
0	2459197	91.021375676214	0.010591744311
0	2459211	91.021967420525	0.011183488622009
0	2459222	91.022493462973	0.011709531070011
0	2459234	91.023063306663	0.012279374760013
0	2459243	91.023633150353	0.01284921845
0	2459309	91.03178680852	0.021002876617004
0	2459318	91.03235665221	0.021572720307006
0	2460664	91.209434915026	15.199317668043
0	2460676	91.210659982098	15.200542735115
0	2460746	91.219268549712	15.209151302729
0	2460759	91.220493616784	15.210376369801
0	2467501	92.010783932103	0
0	2467502	92.010783932103	0
0	2467503	92.010783932103	0
0	2467504	92.010783932103	0
0	2467647	92.021375676414	0.010591744311
0	2467662	92.021967420725	0.011183488622009
0	2467677	92.022493463173	0.011709531069997
0	2467690	92.023063306863	0.012279374759999
0	2467703	92.023633150553	0.01284921845
0	2467799	92.03178680872	0.021002876617004
0	2467812	92.03235665241	0.021572720307006
0	2470164	92.235428587826	15.225311338843
0	2470181	92.236653654898	15.226536405915
0	2470283	92.245262222512	15.235144973529
0	2470299	92.246487289584	15.236370040601
0	2478608	93.010783932303	0
0	2478609	93.010783932303	0
0	2478610	93.010783932303	0
0	2478611	93.010783932303	0
0	2478739	93.021375676614	0.010591744311
0	2478754	93.021967420925	0.011183488621995
0	2478763	93.022493463373	0.011709531069997
0	2478775	93.023063307063	0.012279374759999
0	2478788	93.023633150753	0.01284921845
0	2478876	93.03178680892	0.021002876617004
0	2478885	93.03235665261	0.021572720307006
0	2489156	93.997687570898	15.987570319915
0	2489171	93.99891263797	15.988795386987
0	2489275	94.007521205584	15.997403954601
0	2489291	94.008746272656	15.998629021673
0	2489342	94.010783932503	0
0	2489343	94.010783932503	0
0	2489344	94.010783932503	0
0	2489345	94.010783932503	0
0	2489487	94.021375676814	0.010591744311
0	2489502	94.021967421125	0.011183488621995
0	2489517	94.022493463573	0.011709531069997
0	2489530	94.023063307263	0.012279374759999
0	2489543	94.023633150953	0.01284921845
0	2489638	94.03178680912	0.02100287661699
0	2489652	94.03235665281	0.021572720306992
0	2501091	95.010783932703	0
0	2501092	95.010783932703	0
0	2501093	95.010783932703	0
0	2501094	95.010783932703	0
0	2501237	95.021375677014	0.010591744311
0	2501251	95.021923620083	0.011139687380009
0	2501256	95.021967421325	0.011183488622009
0	2501267	95.022493463773	0.011709531070011
0	2501272	95.022559165636	0.011775232933005
0	2501279	95.023063307463	0.012279374760013
0	2501290	95.023150909947	0.012366977244
0	2501393	95.03178680932	0.021002876617004
0	2503647	95.225204777042	16.215087524059
0	2503663	95.226429844114	16.216312591131
0	2503767	95.235038411728	16.224921158745
0	2503784	95.2362634788	16.226146225817
0	2513033	96.010783932903	0
0	2513034	96.010783932903	0
0	2513035	96.010783932903	0
0	2513036	96.010783932903	0
0	2513161	96.021375677214	0.010591744311
0	2513171	96.021923620283	0.011139687380009
0	2513176	96.021967421525	0.011183488621995
0	2513189	96.022493463973	0.011709531069997
0	2513195	96.022559165836	0.011775232933005
0	2513204	96.023063307663	0.012279374759999
0	2513210	96.023150910147	0.012366977244
0	2513305	96.03178680952	0.021002876617004
0	2522779	96.928660540658	16.918543285675
0	2522796	96.92988560773	16.919768352747
0	2522900	96.938494175344	16.928376920361
0	2522916	96.939719242416	16.929601987433
0	2523765	97.010783933103	0
0	2523766	97.010783933103	0
0	2523767	97.010783933103	0
0	2523768	97.010783933103	0
0	2523904	97.021375677414	0.010591744311
0	2523918	97.021923620483	0.011139687379995
0	2523923	97.021967421725	0.011183488621995
0	2523934	97.022493464173	0.011709531069997
0	2523939	97.022559166036	0.011775232933005
0	2523953	97.023063307863	0.012279374759999
0	2523958	97.023150910347	0.012366977244
0	2524064	97.03178680972	0.021002876617004
0	2535450	98.010783933303	0
0	2535451	98.010783933303	0
0	2535452	98.010783933303	0
0	2535453	98.010783933303	0
0	2535589	98.021375677614	0.010591744311
0	2535603	98.021923620683	0.011139687379995
0	2535608	98.021967421925	0.011183488621995
0	2535620	98.022493464373	0.011709531069997
0	2535625	98.022559166236	0.01177523293299
0	2535637	98.023063308063	0.012279374759999
0	2535642	98.023150910547	0.012366977244
0	2535748	98.03178680992	0.02100287661699
0	2537200	98.156177746802	17.146060489819
0	2537215	98.157402813874	17.147285556891
0	2537320	98.166011381488	17.155894124505
0	2537335	98.16723644856	17.157119191577
0	2547372	99.010783933503	0
0	2547373	99.010783933503	0
0	2547374	99.010783933503	0
0	2547375	99.010783933503	0
0	2547497	99.021375677814	0.010591744311
0	2547509	99.021923620883	0.011139687380009
0	2547514	99.021967422125	0.011183488622009
0	2547527	99.022493464573	0.011709531070011
0	2547532	99.022559166436	0.011775232933005
0	2547542	99.023063308263	0.012279374760013
0	2547547	99.023150910747	0.012366977244
0	2547644	99.03178681012	0.021002876617004
0	2556373	99.86698391285	17.856866653867
0	2556390	99.868208979922	17.858091720939
0	2556497	99.876817547536	17.866700288553
0	2556513	99.878042614608	17.867925355625
0	2558095	100.010783933703	0
0	2558096	100.010783933703	0
0	2558097	100.010783933703	0
0	2558233	100.021353777393	0.010569843690007
0	2558245	100.021923621083	0.011139687380009
0	2558260	100.022493464773	0.011709531069997
0	2558265	100.022559166636	0.011775232933005
0	2558277	100.023063308463	0.012279374759999
0	2558282	100.023150910947	0.012366977244
0	2558293	100.023742655258	0.012958721555009
0	2569804	101.010783933903	0
0	2569805	101.010783933903	0
0	2569806	101.010783933903	0
0	2569942	101.021353777593	0.010569843689993
0	2569955	101.021923621283	0.011139687379995
0	2569973	101.022493464973	0.011709531069997
0	2569978	101.022559166836	0.011775232933005
0	2569988	101.023063308663	0.012279374759999
0	2569993	101.023150911147	0.012366977244
0	2570007	101.023742655458	0.012958721554995
0	2570837	101.094501118994	18.084383858011
0	2570853	101.095726186066	18.085608925083
0	2570960	101.10433475368	18.094217492697
0	2570975	101.105559820752	18.095442559769
0	2581823	102.010783934103	0
0	2581824	102.010783934103	0
0	2581825	102.010783934103	0
0	2581949	102.021353777793	0.010569843689993
0	2581964	102.021923621483	0.011139687379995
0	2581978	102.022493465173	0.011709531069997
0	2581983	102.022559167036	0.01177523293299
0	2581990	102.023063308863	0.012279374759999
0	2581999	102.023150911347	0.012366977244
0	2582009	102.023742655658	0.012958721554995
0	2589851	102.789381413106	18.779264150123
0	2589866	102.790606480178	18.780489217195
0	2589960	102.799215047792	18.789097784809
0	2589974	102.800440114864	18.790322851881
0	2592385	103.010783934303	0
0	2592386	103.010783934303	0
0	2592387	103.010783934303	0
0	2592525	103.021353777993	0.010569843690007
0	2592537	103.021923621683	0.011139687380009
0	2592555	103.022493465373	0.011709531070011
0	2592561	103.022559167236	0.011775232933005
0	2592570	103.023063309063	0.012279374760013
0	2592575	103.023150911547	0.012366977244
0	2592588	103.023742655858	0.012958721555009
0	2596931	103.396402147282	18.385618216579
0	2596937	103.397014680818	18.386230750115
0	2596947	103.397627214354	17.386843283451
0	2596953	103.39823974789	17.387455816987
0	2596963	103.398852281426	16.388068350323
0	2596970	103.399464814962	16.388680883859
0	2596980	103.400077348498	15.389293417195
0	2596985	103.400689882034	15.389905950731
0	2596994	103.40130241557	14.390518484067
0	2596999	103.401914949106	14.391131017603
0	2597089	103.412973650864	13.402189719161
0	2597094	103.4135861844	12.402802252497
0	2597100	103.414198717936	11.403414785833
0	2597105	103.414811251472	10.404027319169
0	2597110	103.415423785008	9.404639852505
0	2597116	103.416036318544	3.405252384841
0	2597121	103.41664885208	3.405864918377
0	2597126	103.417261385616	2.406477451713
0	2597132	103.417873919152	2.407089985249
0	2597137	103.418486452688	1.407702518585
0	2597142	103.419098986224	1.408315052121
0	2597148	103.41971151976	0.40892758545701
0	2597153	103.420324053296	0.40954011899301
0	2597538	104.010783934503	0
0	2597539	104.010783934503	0
0	2597540	104.010783934503	0
0	2597560	104.021353778193	0.010569843690007
0	2597569	104.021923621883	0.011139687380009
0	2597579	104.022493465573	0.011709531069997
0	2597584	104.022559167436	0.011775232933005
0	2597590	104.023063309263	0.012279374759999
0	2597595	104.023150911747	0.012366977244
0	2597600	104.023742656058	0.012958721555009
0	2597626	104.042434380572	0.031650446069008
0	2597632	104.043046914108	0.032262979605008
0	2598254	105.010783934703	0
0	2598255	105.010783934703	0
0	2598256	105.010783934703	0
0	2598257	105.010783934703	0
0	2598280	105.021375679014	0.010591744311
0	2598296	105.022493465773	0.011709531069997
0	2598301	105.022559167636	0.011775232933005
0	2598307	105.023063309463	0.012279374759999
0	2598322	105.03178681132	0.021002876617004
0	2598327	105.03235665501	0.021572720306992
0	2598333	105.032579956861	0.021796022158
0	2598350	105.044209613705	0.033425679001994
0	2598961	106.010783934903	0
0	2598962	106.010783934903	0
0	2598963	106.010783934903	0
0	2598964	106.010783934903	0
0	2598987	106.021375679214	0.010591744311
0	2599003	106.022493465973	0.011709531069997
0	2599008	106.022559167836	0.01177523293299
0	2599014	106.023063309663	0.012279374759999
0	2599029	106.03178681152	0.02100287661699
0	2599034	106.03235665521	0.021572720306992
0	2599040	106.032579957061	0.021796022158
0	2599057	106.044209613905	0.033425679001994
0	2599668	107.010783935103	0
0	2599669	107.010783935103	0
0	2599670	107.010783935103	0
0	2599671	107.010783935103	0
0	2599694	107.021375679414	0.010591744311
0	2599710	107.022493466173	0.011709531070011
0	2599715	107.022559168036	0.011775232933005
0	2599721	107.023063309863	0.012279374759999
0	2599736	107.03178681172	0.021002876617004
0	2599741	107.03235665541	0.021572720307006
0	2599747	107.032579957261	0.021796022158
0	2599764	107.044209614105	0.033425679002008
0	2600375	108.010783935303	0
0	2600376	108.010783935303	0
0	2600377	108.010783935303	0
0	2600378	108.010783935303	0
0	2600401	108.021375679614	0.010591744311
0	2600417	108.022493466373	0.011709531069997
0	2600422	108.022559168236	0.011775232933005
0	2600428	108.023063310063	0.012279374759999
0	2600443	108.03178681192	0.021002876617004
0	2600448	108.03235665561	0.021572720307006
0	2600454	108.032579957461	0.021796022158
0	2600471	108.044209614305	0.033425679002008
0	2601082	109.010783935503	0
0	2601083	109.010783935503	0
0	2601084	109.010783935503	0
0	2601085	109.010783935503	0
0	2601108	109.021375679814	0.010591744311
0	2601124	109.022493466573	0.011709531069997
0	2601129	109.022559168436	0.011775232933005
0	2601135	109.023063310263	0.012279374759999
0	2601150	109.03178681212	0.021002876617004
0	2601155	109.03235665581	0.021572720306992
0	2601161	109.032579957661	0.021796022158
0	2601178	109.044209614505	0.033425679001994
0	2601801	110.010783935703	0
0	2601802	110.010783935703	0
0	2601803	110.010783935703	0
0	2601804	110.010783935703	0
0	2601827	110.021375680014	0.010591744311
0	2601843	110.022493466773	0.011709531069997
0	2601848	110.022559168636	0.01177523293299
0	2601854	110.023063310463	0.012279374759999
0	2601869	110.03178681232	0.02100287661699
0	2601874	110.03235665601	0.021572720306992
0	2601880	110.032579957861	0.021796022158
0	2601897	110.044209614705	0.033425679001994
0	2602508	111.010783935903	0
0	2602509	111.010783935903	0
0	2602510	111.010783935903	0
0	2602511	111.010783935903	0
0	2602534	111.021375680214	0.010591744311
0	2602550	111.022493466973	0.011709531070011
0	2602555	111.022559168836	0.011775232933005
0	2602561	111.023063310663	0.012279374759999
0	2602576	111.03178681252	0.021002876617004
0	2602581	111.03235665621	0.021572720307006
0	2602587	111.032579958061	0.021796022158
0	2602604	111.044209614905	0.033425679002008
0	2603215	112.010783936103	0
0	2603216	112.010783936103	0
0	2603217	112.010783936103	0
0	2603218	112.010783936103	0
0	2603241	112.021375680414	0.010591744311
0	2603257	112.022493467173	0.011709531069997
0	2603262	112.022559169036	0.011775232933005
0	2603268	112.023063310863	0.012279374759999
0	2603283	112.03178681272	0.021002876617004
0	2603288	112.03235665641	0.021572720307006
0	2603294	112.032579958261	0.021796022158
0	2603311	112.044209615105	0.033425679002008
0	2603922	113.010783936303	0
0	2603923	113.010783936303	0
0	2603924	113.010783936303	0
0	2603925	113.010783936303	0
0	2603948	113.021375680614	0.010591744311
0	2603964	113.022493467373	0.011709531069997
0	2603969	113.022559169236	0.011775232933005
0	2603975	113.023063311063	0.012279374759999
0	2603990	113.03178681292	0.021002876617004
0	2603995	113.03235665661	0.021572720306992
0	2604001	113.032579958461	0.021796022158
0	2604018	113.044209615305	0.033425679001994
0	2604629	114.010783936503	0
0	2604630	114.010783936503	0
0	2604631	114.010783936503	0
0	2604632	114.010783936503	0
0	2604655	114.021375680814	0.010591744311
0	2604671	114.022493467573	0.011709531069997
0	2604676	114.022559169436	0.01177523293299
0	2604682	114.023063311263	0.012279374759999
0	2604697	114.03178681312	0.02100287661699
0	2604702	114.03235665681	0.021572720306992
0	2604708	114.032579958661	0.021796022158
0	2604725	114.044209615505	0.033425679001994
0	2605348	115.010783936703	0
0	2605349	115.010783936703	0
0	2605350	115.010783936703	0
0	2605351	115.010783936703	0
0	2605374	115.021375681014	0.010591744311
0	2605390	115.022493467773	0.011709531070011
0	2605395	115.022559169636	0.011775232933005
0	2605401	115.023063311463	0.012279374759999
0	2605416	115.03178681332	0.021002876617004
0	2605421	115.03235665701	0.021572720307006
0	2605427	115.032579958861	0.021796022158
0	2605444	115.044209615705	0.033425679002008
0	2606055	116.010783936903	0
0	2606056	116.010783936903	0
0	2606057	116.010783936903	0
0	2606058	116.010783936903	0
0	2606081	116.021375681214	0.010591744311
0	2606097	116.022493467973	0.011709531069997
0	2606102	116.022559169836	0.011775232933005
0	2606108	116.023063311663	0.012279374759999
0	2606123	116.03178681352	0.021002876617004
0	2606128	116.03235665721	0.021572720307006
0	2606134	116.032579959061	0.021796022158
0	2606151	116.044209615905	0.033425679002008
0	2606762	117.010783937103	0
0	2606763	117.010783937103	0
0	2606764	117.010783937103	0
0	2606765	117.010783937103	0
0	2606788	117.021375681414	0.010591744311
0	2606804	117.022493468173	0.011709531069997
0	2606809	117.022559170036	0.011775232933005
0	2606815	117.023063311863	0.012279374759999
0	2606830	117.03178681372	0.021002876617004
0	2606835	117.03235665741	0.021572720306992
0	2606841	117.032579959261	0.021796022158
0	2606858	117.044209616105	0.033425679001994
0	2607469	118.010783937303	0
0	2607470	118.010783937303	0
0	2607471	118.010783937303	0
0	2607472	118.010783937303	0
0	2607495	118.021375681614	0.010591744311
0	2607511	118.022493468373	0.011709531069997
0	2607516	118.022559170236	0.01177523293299
0	2607522	118.023063312063	0.012279374759999
0	2607537	118.03178681392	0.02100287661699
0	2607542	118.03235665761	0.021572720306992
0	2607548	118.032579959461	0.021796022158
0	2607565	118.044209616305	0.033425679001994
0	2608176	119.010783937503	0
0	2608177	119.010783937503	0
0	2608178	119.010783937503	0
0	2608179	119.010783937503	0
0	2608202	119.021375681814	0.010591744311
0	2608218	119.022493468573	0.011709531070011
0	2608223	119.022559170436	0.011775232933005
0	2608229	119.023063312263	0.012279374759999
0	2608244	119.03178681412	0.021002876617004
0	2608249	119.03235665781	0.021572720307006
0	2608255	119.032579959661	0.021796022158
0	2608272	119.044209616505	0.033425679002008
0	2608895	120.010783937703	0
0	2608896	120.010783937703	0
0	2608897	120.010783937703	0
0	2608898	120.010783937703	0
0	2608921	120.021375682014	0.010591744311
0	2608937	120.022493468773	0.011709531069997
0	2608942	120.022559170636	0.011775232933005
0	2608948	120.023063312463	0.012279374759999
0	2608963	120.03178681432	0.021002876617004
0	2608968	120.03235665801	0.021572720307006
0	2608974	120.032579959861	0.021796022158
0	2608991	120.044209616705	0.033425679002008
0	2609602	121.010783937903	0
0	2609603	121.010783937903	0
0	2609604	121.010783937903	0
0	2609605	121.010783937903	0
0	2609628	121.021375682214	0.010591744311
0	2609644	121.022493468973	0.011709531069997
0	2609649	121.022559170836	0.011775232933005
0	2609655	121.023063312663	0.012279374759999
0	2609670	121.03178681452	0.021002876617004
0	2609675	121.03235665821	0.021572720306992
0	2609681	121.032579960061	0.021796022158
0	2609698	121.044209616905	0.033425679001994
0	2610309	122.010783938103	0
0	2610310	122.010783938103	0
0	2610311	122.010783938103	0
0	2610312	122.010783938103	0
0	2610335	122.021375682414	0.010591744311
0	2610351	122.022493469173	0.011709531069997
0	2610356	122.022559171036	0.01177523293299
0	2610362	122.023063312863	0.012279374759999
0	2610377	122.03178681472	0.02100287661699
0	2610382	122.03235665841	0.021572720306992
0	2610388	122.032579960261	0.021796022158
0	2610405	122.044209617105	0.033425679001994
0	2611016	123.010783938303	0
0	2611017	123.010783938303	0
0	2611018	123.010783938303	0
0	2611019	123.010783938303	0
0	2611042	123.021375682614	0.010591744311
0	2611058	123.022493469373	0.011709531070011
0	2611063	123.022559171236	0.011775232933005
0	2611069	123.023063313063	0.012279374759999
0	2611084	123.03178681492	0.021002876617004
0	2611089	123.03235665861	0.021572720307006
0	2611095	123.032579960461	0.021796022158
0	2611112	123.044209617305	0.033425679002008
0	2611723	124.010783938503	0
0	2611724	124.010783938503	0
0	2611725	124.010783938503	0
0	2611726	124.010783938503	0
0	2611749	124.021375682814	0.010591744311
0	2611765	124.022493469573	0.011709531069997
0	2611770	124.022559171436	0.011775232933005
0	2611776	124.023063313263	0.012279374759999
0	2611791	124.03178681512	0.021002876617004
0	2611796	124.03235665881	0.021572720307006
0	2611802	124.032579960661	0.021796022158
0	2611819	124.044209617505	0.033425679002008
0	2612442	125.010783938703	0
0	2612443	125.010783938703	0
0	2612444	125.010783938703	0
0	2612445	125.010783938703	0
0	2612468	125.021375683014	0.010591744311
0	2612484	125.022493469773	0.011709531069997
0	2612489	125.022559171636	0.011775232933005
0	2612495	125.023063313463	0.012279374759999
0	2612510	125.03178681532	0.021002876617004
0	2612515	125.03235665901	0.021572720306992
0	2612521	125.032579960861	0.021796022158
0	2612538	125.044209617705	0.033425679001994
0	2613149	126.010783938903	0
0	2613150	126.010783938903	0
0	2613151	126.010783938903	0
0	2613152	126.010783938903	0
0	2613175	126.021375683214	0.010591744311
0	2613191	126.022493469973	0.011709531069997
0	2613196	126.022559171836	0.01177523293299
0	2613202	126.023063313663	0.012279374759999
0	2613217	126.03178681552	0.02100287661699
0	2613222	126.03235665921	0.021572720306992
0	2613228	126.032579961061	0.021796022158
0	2613245	126.044209617905	0.033425679001994
0	2613856	127.010783939103	0
0	2613857	127.010783939103	0
0	2613858	127.010783939103	0
0	2613859	127.010783939103	0
0	2613882	127.021375683414	0.010591744311
0	2613898	127.022493470173	0.011709531070011
0	2613903	127.022559172036	0.011775232933005
0	2613909	127.023063313863	0.012279374759999
0	2613924	127.03178681572	0.021002876617004
0	2613929	127.03235665941	0.021572720307006
0	2613935	127.032579961261	0.021796022158
0	2613952	127.044209618105	0.033425679002008
0	2614563	128.010783939303	0
0	2614564	128.010783939303	0
0	2614565	128.010783939303	0
0	2614566	128.010783939303	0
0	2614589	128.021375683614	0.010591744311
0	2614605	128.022493470373	0.011709531070011
0	2614610	128.022559172236	0.01177523293299
0	2614616	128.023063314063	0.012279374759999
0	2614631	128.03178681592	0.02100287661699
0	2614636	128.03235665961	0.021572720307006
0	2614642	128.032579961461	0.021796022158014
0	2614659	128.044209618305	0.033425679001994
0	2615270	129.010783939503	0
0	2615271	129.010783939503	0
0	2615272	129.010783939503	0
0	2615273	129.010783939503	0
0	2615296	129.021375683814	0.010591744311
0	2615312	129.022493470573	0.011709531070011
0	2615317	129.022559172436	0.01177523293299
0	2615323	129.023063314263	0.012279374759999
0	2615338	129.03178681612	0.02100287661699
0	2615343	129.03235665981	0.021572720307006
0	2615349	129.032579961661	0.021796022157986
0	2615366	129.044209618505	0.033425679001994
0	2616012	130.010783939703	0
0	2616013	130.010783939703	0
0	2616014	130.010783939703	0
0	2616015	130.010783939703	0
0	2616079	130.021375684014	0.010591744311
0	2616104	130.022493470773	0.011709531069982
0	2616109	130.022559172636	0.01177523293299
0	2616118	130.023063314463	0.012279374759999
0	2616183	130.03178681632	0.02100287661699
0	2616196	130.03235666001	0.021572720307006
0	2616204	130.032579961861	0.021796022157986
0	2616290	130.044209618705	0.033425679001994
0	2622929	131.012117272786	0
0	2622930	131.012117272786	0
0	2622931	131.012117272786	0
0	2622932	131.012117272786	0
0	2623024	131.022709017097	0.010591744311
0	2623044	131.023826803856	0.011709531070011
0	2623049	131.023892505719	0.011775232933019
0	2623059	131.024396647546	0.012279374759999
0	2623140	131.033120149403	0.021002876617018
0	2623149	131.033689993093	0.021572720307006
0	2623159	131.033913294944	0.021796022158014
0	2623259	131.045542951788	0.033425679002022
0	2631215	132.013228383797	0
0	2631216	132.013228383797	0
0	2631217	132.013228383797	0
0	2631218	132.013228383797	0
0	2631332	132.023820128108	0.010591744311
0	2631356	132.024937914867	0.011709531070011
0	2631361	132.02500361673	0.011775232933019
0	2631368	132.025507758557	0.012279374759999
0	2631466	132.034231260414	0.021002876617018
0	2631476	132.034801104104	0.021572720307006
0	2631482	132.035024405955	0.021796022158014
0	2631606	132.046654062799	0.033425679002022
0	2640841	133.014180764349	0
0	2640842	133.014180764349	0
0	2640843	133.014180764349	0
0	2640844	133.014180764349	0
0	2640964	133.02477250866	0.010591744311
0	2640995	133.025890295419	0.011709531070011
0	2641000	133.025955997282	0.011775232933019
0	2641007	133.026460139109	0.012279374759999
0	2641110	133.035183640966	0.021002876617018
0	2641120	133.035753484656	0.021572720307006
0	2641129	133.035976786507	0.021796022158014
0	2641272	133.047606443351	0.033425679001994
0	2651847	134.015014097282	0
0	2651848	134.015014097282	0
0	2651849	134.015014097282	0
0	2651850	134.015014097282	0
0	2651982	134.025605841593	0.010591744311
0	2652003	134.026723628352	0.011709531069982
0	2652008	134.026789330215	0.01177523293299
0	2652021	134.027293472042	0.012279374759999
0	2652147	134.036016973899	0.02100287661699
0	2652156	134.036586817589	0.021572720307006
0	2652166	134.03681011944	0.021796022157986
0	2652318	134.048439776284	0.033425679001994
0	2664210	135.015014097632	0
0	2664211	135.015014097632	0
0	2664212	135.015014097632	0
0	2664213	135.015014097632	0
0	2664356	135.025583941322	0.010569843690007
0	2664361	135.025605841943	0.010591744311
0	2664373	135.026153785012	0.011139687379995
0	2664378	135.026197586254	0.011183488622009
0	2664391	135.026789330565	0.011775232933019
0	2664401	135.027293472392	0.012279374759999
0	2664406	135.027381074876	0.012366977244
0	2664548	135.037156661629	0.022142563996994
0	2677895	136.015014098132	0
0	2677896	136.015014098132	0
0	2677897	136.015014098132	0
0	2677898	136.015014098132	0
0	2678054	136.025583941822	0.010569843690007
0	2678059	136.025605842443	0.010591744311
0	2678069	136.026153785512	0.011139687380023
0	2678074	136.026197586754	0.011183488622009
0	2678091	136.026789331065	0.011775232933019
0	2678102	136.027293472892	0.012279374759999
0	2678107	136.027381075376	0.012366977244
0	2678259	136.037156662129	0.022142563997022
0	2694108	137.015620158638	0
0	2694109	137.015620158638	0
0	2694110	137.015620158638	0
0	2694111	137.015620158638	0
0	2694331	137.026190002328	0.010569843690007
0	2694336	137.026211902949	0.010591744311
0	2694345	137.026759846018	0.011139687379995
0	2694350	137.02680364726	0.011183488622009
0	2694367	137.027395391571	0.01177523293299
0	2694381	137.027899533398	0.012279374759999
0	2694386	137.027987135882	0.012366977244
0	2694574	137.037762722635	0.022142563996994
0	2714716	138.015620159438	0
0	2714717	138.015620159438	0
0	2714718	138.015620159438	0
0	2714719	138.015620159438	0
0	2714896	138.026190003128	0.010569843690007
0	2714901	138.026211903749	0.010591744311
0	2714915	138.026759846818	0.011139687380023
0	2714920	138.02680364806	0.011183488622009
0	2714933	138.027395392371	0.011775232933019
0	2714945	138.027899534198	0.012279374759999
0	2714954	138.027987136682	0.012366977244
0	2715129	138.037762723435	0.022142563997022
0	2731230	139.015620159788	0
0	2731231	139.015620159788	0
0	2731232	139.015620159788	0
0	2731233	139.015620159788	0
0	2731426	139.026190003478	0.010569843690007
0	2731431	139.026290827897	0.010670668108986
0	2731442	139.026759847168	0.011139687379995
0	2731447	139.026882572208	0.011262412419995
0	2731461	139.027474316519	0.011854156731005
0	2731471	139.027899534548	0.012279374759999
0	2731480	139.02806606083	0.012445901041986
0	2731662	139.037762723785	0.022142563996994
0	2749012	140.016096349864	0
0	2749013	140.016096349864	0
0	2749014	140.016096349864	0
0	2749015	140.016096349864	0
0	2749218	140.026688094175	0.010591744311
0	2749226	140.026759846768	0.010663496903987
0	2749240	140.027279838486	0.011183488622009
0	2749245	140.027329690458	0.011233340594003
0	2749254	140.027871582797	0.01177523293299
0	2749268	140.028463327108	0.012366977244
0	2749273	140.028469377838	0.012373027974007
0	2749472	140.038332567075	0.022236217211002
0	2766041	141.016540793308	0
0	2766042	141.016540793308	0
0	2766043	141.016540793308	0
0	2766044	141.016540793308	0
0	2766223	141.027132537619	0.010591744311
0	2766229	141.027236036244	0.010695242936009
0	2766238	141.02772428193	0.011183488622009
0	2766246	141.027805879934	0.011265086625997
0	2766255	141.028316026241	0.01177523293299
0	2766272	141.028907770552	0.012366977244
0	2766277	141.028945567314	0.012404774006001
0	2766453	141.038808756551	0.022267963242996
0	2782348	142.016540794108	0
0	2782349	142.016540794108	0
0	2782350	142.016540794108	0
0	2782351	142.016540794108	0
0	2782536	142.027132538419	0.010591744311
0	2782541	142.027263814821	0.010723020712987
0	2782550	142.02772428273	0.011183488621981
0	2782555	142.027833658511	0.011292864402975
0	2782568	142.028316027041	0.01177523293299
0	2782583	142.028907771352	0.012366977244
0	2782591	142.028973345891	0.012432551782979
0	2782776	142.038836535128	0.022295741019974
0	2799854	143.016540794758	0
0	2799855	143.016540794758	0
0	2799856	143.016540794758	0
0	2799857	143.016540794758	0
0	2800056	143.027132539069	0.010591744311
0	2800076	143.02772428338	0.011183488622009
0	2800090	143.028316027691	0.011775232933019
0	2800106	143.028907772002	0.012366977244
0	2800352	143.041905518338	0.025364723579997
0	2800364	143.042475362028	0.025934567270014
0	2800389	143.043615049408	0.027074254650017
0	2800568	143.053478238645	0.036937443887012
0	2819428	144.016911164128	0
0	2819429	144.016911164128	0
0	2819430	144.016911164128	0
0	2819431	144.016911164128	0
0	2819634	144.027481007818	0.010569843690007
0	2819640	144.02772428238	0.010813118252003
0	2819649	144.028050851508	0.011139687379995
0	2819658	144.028316026691	0.011404862562983
0	2819675	144.028907771002	0.011996606873993
0	2819682	144.029190538888	0.012279374759999
0	2819691	144.029499515313	0.012588351185002
0	2819901	144.039053728125	0.022142563996994
0	2838734	145.016911164178	0
0	2838735	145.016911164178	0
0	2838736	145.016911164178	0
0	2838737	145.016911164178	0
0	2838950	145.027502908489	0.010591744311
0	2838967	145.0280946528	0.011183488622009
0	2838972	145.028137907359	0.011226743180998
0	2838984	145.028686397111	0.01177523293299
0	2838989	145.028707751049	0.011796586870986
0	2839010	145.029278141422	0.012366977244
0	2839021	145.029847438429	0.01293627425099
0	2839245	145.039710627666	0.022799463488013
0	2859172	146.017244496511	0
0	2859173	146.017244496511	0
0	2859174	146.017244496511	0
0	2859175	146.017244496511	0
0	2859394	146.027836240822	0.010591744311
0	2859414	146.028427985133	0.011183488622009
0	2859429	146.029019729444	0.011775232933019
0	2859442	146.029611473755	0.012366977244
0	2860560	146.085372594115	0.068128097604017
0	2860572	146.085942437805	0.068697941294005
0	2860596	146.087082125185	0.069837628674009
0	2860795	146.096945314422	0.079700817911004
0	2881740	147.017561955378	0
0	2881741	147.017561955378	0
0	2881742	147.017561955378	0
0	2881743	147.017561955378	0
0	2881982	147.028131799068	0.010569843690007
0	2881992	147.028427983683	0.010866028305003
0	2882002	147.028701642758	0.011139687379995
0	2882012	147.029019727994	0.011457772615984
0	2882028	147.029611472305	0.012049516926993
0	2882037	147.029841330138	0.012279374759999
0	2882047	147.030203216616	0.012641261238002
0	2882283	147.039704519375	0.022142563996994
0	2904120	148.017864985581	0
0	2904121	148.017864985581	0
0	2904122	148.017864985581	0
0	2904123	148.017864985581	0
0	2904363	148.028434829271	0.010569843690007
0	2904368	148.028456729892	0.010591744311
0	2904383	148.029004672961	0.011139687380023
0	2904388	148.029048474203	0.011183488622009
0	2904405	148.029640218514	0.011775232933019
0	2904419	148.030144360341	0.012279374759999
0	2904424	148.030231962825	0.012366977244
0	2904660	148.040007549578	0.022142563997022
0	2926628	149.018154839053	0
0	2926629	149.018154839053	0
0	2926630	149.018154839053	0
0	2926631	149.018154839053	0
0	2926931	149.02906050677	0.010905667716997
0	2926947	149.029652251081	0.011497412027978
0	2926968	149.030243995392	0.012089156338988
0	2926987	149.030835739703	0.012680900649997
0	2931254	149.192412799465	0.17425796041198
0	2931274	149.192982643155	0.17482780410199
0	2931303	149.194122330535	0.175967491482
0	2931559	149.203985519772	0.18583068071899
0	2951715	150.018154839853	0
0	2951716	150.018154839853	0
0	2951717	150.018154839853	0
0	2951718	150.018154839853	0
0	2951979	150.028724683543	0.010569843690007
0	2951993	150.029096739452	0.010941899599004
0	2951998	150.029294527233	0.011139687379995
0	2952011	150.029688483763	0.011533643910013
0	2952028	150.030280228074	0.012125388220994
0	2952037	150.030434214613	0.012279374759999
0	2952047	150.030871972385	0.012717132532003
0	2952306	150.04029740385	0.022142563996994
0	2975317	151.018154841103	0
0	2975318	151.018154841103	0
0	2975319	151.018154841103	0
0	2975320	151.018154841103	0
0	2975570	151.028746585414	0.010591744311
0	2975587	151.029338329725	0.011183488622009
0	2975602	151.029930074036	0.011775232933019
0	2975624	151.030521818347	0.012366977244
0	2982329	151.27460206338	0.25644722227702
0	2982348	151.27517190707	0.25701706596701
0	2982380	151.27631159445	0.25815675334701
0	2982658	151.286174783687	0.268019942584
0	3002858	152.018411249759	0
0	3002859	152.018411249759	0
0	3002860	152.018411249759	0
0	3002861	152.018411249759	0
0	3003178	152.02967366218	0.01126241242099
0	3003199	152.030265406491	0.011854156731999
0	3003216	152.030857150802	0.012445901043009
0	3003232	152.031448895113	0.01303764535399
0	3003886	152.0541482313	0.035736981540992
0	3003905	152.05471807499	0.036306825231009
0	3003939	152.05585776237	0.037446512611012
0	3004221	152.065720951607	0.047309701848008
0	3028557	153.018658162339	0
0	3028558	153.018658162339	0
0	3028559	153.018658162339	0
0	3028560	153.018658162339	0
0	3028814	153.02924990665	0.010591744311
0	3028830	153.029841650961	0.011183488622009
0	3028853	153.030433395272	0.01177523293299
0	3028869	153.031025139583	0.012366977244
0	3034498	153.246835837889	0.22817767555
0	3034517	153.247405681579	0.22874751924002
0	3034550	153.248545368959	0.22988720661999
0	3034840	153.258408558196	0.23975039585702
0	3057027	154.018896257177	0
0	3057028	154.018896257177	0
0	3057029	154.018896257177	0
0	3057030	154.018896257177	0
0	3057364	154.030195299634	0.011299042456983
0	3057383	154.030787043945	0.011890786767992
0	3057403	154.031378788256	0.012482531079002
0	3057421	154.031970532567	0.013074275389982
0	3061566	154.171692146759	0.15279588958199
0	3061585	154.172261990449	0.15336573327198
0	3061621	154.173401677829	0.15450542065199
0	3061913	154.183264867066	0.16436860988898
0	3084950	155.019126140184	0
0	3084951	155.019126140184	0
0	3084952	155.019126140184	0
0	3084953	155.019126140184	0
0	3085296	155.030343692143	0.011217551958993
0	3085319	155.030935436454	0.011809296270002
0	3085336	155.031527180765	0.012401040581011
0	3085356	155.032118925076	0.012992784891992
0	3085712	155.043323202923	0.024197062739006
0	3093789	155.302906222441	0.28378008225701
0	3093806	155.303476066131	0.284349925947
0	3094094	155.312769411678	0.29364327149401
0	3115493	156.019348361406	0
0	3115494	156.019348361406	0
0	3115495	156.019348361406	0
0	3115496	156.019348361406	0
0	3115832	156.030382005318	0.011033643911986
0	3115852	156.030973749629	0.011625388222996
0	3115872	156.03156549394	0.012217132534005
0	3115891	156.032157238251	0.012808876844986
0	3116241	156.043361516098	0.024013154692
0	3119879	156.159951132201	0.140602770795
0	3119898	156.160520975891	0.14117261448499
0	3120191	156.169814321438	0.15046596003199
0	3144911	157.019563413119	0
0	3144912	157.019563413119	0
0	3144913	157.019563413119	0
0	3144914	157.019563413119	0
0	3145276	157.030855121548	0.011291708429013
0	3145297	157.031446865859	0.011883452740022
0	3145313	157.03203861017	0.012475197051003
0	3145336	157.032630354481	0.013066941362013
0	3145694	157.043834632328	0.024271219208998
0	3156088	157.362891161791	0.34332774867201
0	3156109	157.363461005481	0.343897592362
0	3156424	157.372754351028	0.35319093790901
0	3178393	158.019771744852	0
0	3178394	158.019771744852	0
0	3178395	158.019771744852	0
0	3178396	158.019771744852	0
0	3181194	158.092291084991	0.072519340138996
0	3181214	158.092860928681	0.073089183829012
0	3181491	158.102154274228	0.082382529375991
0	3184427	158.20053754076	0.180765795908
0	3184448	158.201129285071	0.18135754021901
0	3184471	158.201721029382	0.18194928452999
0	3184490	158.202312773693	0.182541028841
0	3184881	158.21351705154	0.19374530668802
0	3212749	159.019973764954	0
0	3212750	159.019973764954	0
0	3212751	159.019973764954	0
0	3212752	159.019973764954	0
0	3213120	159.031243038704	0.011269273750003
0	3213140	159.031812882394	0.011839117440019
0	3213459	159.041106227941	0.021132462986998
0	3221473	159.284021374201	0.264047609247
0	3221499	159.284613118512	0.26463935355801
0	3221516	159.285204862823	0.26523109786902
0	3221537	159.285796607134	0.26582284218
0	3221905	159.297000884981	0.27702712002701
0	3245575	160.020169841485	0
0	3245576	160.020169841485	0
0	3245577	160.020169841485	0
0	3245578	160.020169841485	0
0	3249728	160.126294863397	0.10612502191199
0	3249752	160.126864707087	0.10669486560201
0	3249779	160.127434550777	0.107264709292
0	3250136	160.136158052634	0.11598821114899
0	3260794	160.418395218388	0.39822537690299
0	3260810	160.418986962699	0.39881712121399
0	3260831	160.41957870701	0.399408865525
0	3260857	160.420170451321	0.40000060983598
0	3281098	161.020360315175	0
0	3281099	161.020360315175	0
0	3281100	161.020360315175	0
0	3281101	161.020360315175	0
0	3281495	161.031687308985	0.011326993810002
0	3281515	161.032257152675	0.011896837499989
0	3281538	161.032826996365	0.012466681190006
0	3281850	161.041550498222	0.021190183046997
0	3305241	161.7154987481	0.69513843292501
0	3305268	161.716090492411	0.69573017723599
0	3305292	161.716682236722	0.696321921547
0	3305313	161.717273981033	0.69691366585801
0	3316558	162.02054549936	0
0	3316559	162.02054549936	0
0	3316560	162.02054549936	0
0	3316561	162.02054549936	0
0	3317186	162.035955096825	0.015409597465009
0	3317207	162.036524940515	0.015979441154997
0	3317232	162.037094784205	0.016549284845013
0	3317597	162.045818286062	0.025272786702004
0	3348152	162.914372722186	0.89382722282599
0	3348174	162.914964466497	0.894418967137
0	3348193	162.915556210808	0.89501071144801
0	3348213	162.916147955119	0.89560245575899
0	3351562	163.02072567854	0
0	3351563	163.02072567854	0
0	3351564	163.02072567854	0
0	3351565	163.02072567854	0
0	3363311	163.367679800355	0.346954121815
0	3363331	163.368249644045	0.34752396550499
0	3363353	163.368819487735	0.34809380919501
0	3363647	163.377542989592	0.356817311052
0	3378542	163.810865353351	0.790139674811
0	3378564	163.811457097662	0.79073141912198
0	3378585	163.812048841973	0.79132316343299
0	3378605	163.812640586284	0.791914907744
0	3385811	164.020901114336	0
0	3385812	164.020901114336	0
0	3385813	164.020901114336	0
0	3385814	164.020901114336	0
0	3400870	164.453232029805	0.43233091546901
0	3400892	164.453801873495	0.432900759159
0	3400911	164.454371717185	0.43347060284898
0	3401216	164.463095219042	0.442194104706
0	3417018	164.937546521495	0.916645407159
0	3417038	164.938138265806	0.91723715147
0	3417062	164.938730010117	0.91782889578099
0	3417084	164.939321754428	0.91842064009199
0	3419977	165.020901114686	0
0	3419978	165.020901114686	0
0	3419979	165.020901114686	0
0	3419980	165.020901114686	0
0	3446597	165.775269390605	0.75436827591901
0	3446617	165.775839234295	0.75493811960902
0	3446642	165.776409077985	0.75550796329901
0	3446948	165.785132579842	0.764231465156
0	3451974	165.927534753798	0.90663363911202
0	3451998	165.928126498109	0.90722538342303
0	3452017	165.92871824242	0.90781712773401
0	3452042	165.929309986731	0.90840887204502
0	3455308	166.020901116686	0
0	3455309	166.020901116686	0
0	3455310	166.020901116686	0
0	3455311	166.020901116686	0
0	3487231	166.945334968718	0.924433852032
0	3487254	166.945926713029	0.925025596343
0	3487279	166.94651845734	0.92561734065401
0	3487301	166.947110201651	0.926209084965
0	3489929	167.020901118686	0
0	3489930	167.020901118686	0
0	3489931	167.020901118686	0
0	3489932	167.020901118686	0
0	3493818	167.130927529115	1.110026412429
0	3493841	167.131497372805	1.110596256119
0	3493860	167.132067216495	1.111166099809
0	3494178	167.140790718352	1.119889601666
0	3525268	168.020901120686	0
0	3525269	168.020901120686	0
0	3525270	168.020901120686	0
0	3525271	168.020901120686	0
0	3529301	168.134741033828	1.113839915142
0	3529321	168.135332778139	1.114431659453
0	3529345	168.13592452245	1.115023403764
0	3529368	168.136516266761	1.115615148075
0	3534606	168.281441939225	1.260540820539
0	3534625	168.282011782915	1.261110664229
0	3534647	168.282581626605	1.261680507919
0	3534939	168.291305128462	1.270404009776
0	3559916	169.020901122686	0
0	3559917	169.020901122686	0
0	3559918	169.020901122686	0
0	3559919	169.020901122686	0
0	3564313	169.145440317016	1.12453919633
0	3564333	169.146032061327	1.125130940641
0	3564356	169.146623805638	1.125722684952
0	3564378	169.147215549949	1.126314429263
0	3581588	169.634250859285	1.613349738599
0	3581607	169.634820702975	1.613919582289
0	3581627	169.635390546665	1.614489425979
0	3581941	169.644114048522	1.623212927836
0	3595307	170.020901124686	0
0	3595308	170.020901124686	0
0	3595309	170.020901124686	0
0	3600393	170.162057043314	1.141155920628
0	3600420	170.162648787625	1.141747664939
0	3600448	170.163240531936	1.14233940925
0	3600475	170.163832276247	1.142931153561
0	3629031	170.996177278385	1.975276155699
0	3629055	170.996747122075	1.975845999389
0	3629078	170.997316965765	1.976415843079
0	3629388	171.006040467622	1.985139344936
0	3629949	171.020901126686	0
0	3629950	171.020901126686	0
0	3629951	171.020901126686	0
0	3642378	171.37276590362	1.351864778934
0	3642400	171.373357647931	1.352456523245
0	3642422	171.373949392242	1.353048267556
0	3642819	171.385153670089	1.364252545403
0	3665224	172.020901128686	0
0	3665225	172.020901128686	0
0	3665226	172.020901128686	0
0	3669343	172.130166221485	2.109265096799
0	3669365	172.130736065175	2.109834940489
0	3669384	172.131305908865	2.110404784179
0	3669654	172.139459567032	2.118558442346
0	3669677	172.140029410722	2.119128286036
0	3677059	172.363345880234	1.342444753548
0	3677081	172.363937624545	1.343036497859
0	3677100	172.364529368856	1.34362824217
0	3677469	172.375733646703	1.354832520017
0	3699818	173.020901130686	0
0	3699819	173.020901130686	0
0	3699820	173.020901130686	0
0	3712928	173.374045163422	1.353144034736
0	3712957	173.374636907733	1.353735779047
0	3712977	173.375228652044	1.354327523358
0	3713401	173.386432929891	1.365531801205
0	3717922	173.507478420215	2.486577293529
0	3717945	173.508048263905	2.487147137219
0	3717968	173.508618107595	2.487716980909
0	3718274	173.516771765762	2.495870639076
0	3718299	173.517341609452	2.496440482766
0	3737128	174.020901132686	0
0	3737129	174.020901132686	0
0	3737130	174.020901132686	0
0	3756614	174.559900762666	1.53899963198
0	3756640	174.560492506977	1.539591376291
0	3756664	174.561084251288	1.540183120602
0	3757078	174.572288529135	1.551387398449
0	3772677	174.970267172445	2.949366043759
0	3772701	174.970837016135	2.949935887449
0	3772727	174.971406859825	2.950505731139
0	3773041	174.979560517992	2.958659389306
0	3773070	174.980130361682	2.959229232996
0	3774680	175.020901134686	0
0	3774681	175.020901134686	0
0	3774682	175.020901134686	0
0	3795781	175.567049579988	1.546148447302
0	3795809	175.567641324299	1.546740191613
0	3795832	175.56823306861	1.547331935924
0	3796263	175.579437346457	1.558536213771
0	3813339	176.020901136686	0
0	3813340	176.020901136686	0
0	3813341	176.020901136686	0
0	3828059	176.397725615895	3.376824485209
0	3828088	176.398295459585	3.377394328899
0	3828111	176.398865303275	3.377964172589
0	3828445	176.407018961442	3.386117830756
0	3828473	176.407588805132	3.386687674446
0	3835492	176.570647931444	1.549746796758
0	3835523	176.571239675755	1.550338541069
0	3835546	176.571831420066	1.55093028538
0	3835953	176.583035697913	1.562134563227
0	3836354	176.594094399671	1.573193264985
0	3851383	177.020901138686	0
0	3851384	177.020901138686	0
0	3851385	177.020901138686	0
0	3879715	177.757095274999	1.736194138313
0	3879739	177.75768701931	1.736785882624
0	3879764	177.758278763621	1.737377626935
0	3880190	177.769483041468	1.748581904782
0	3880628	177.780541743226	1.75964060654
0	3889937	178.020901140686	0
0	3889938	178.020901140686	0
0	3889939	178.020901140686	0
0	3891505	178.059389815935	4.038488683249
0	3891530	178.059959659625	4.039058526939
0	3891556	178.060529503315	4.039628370629
0	3891892	178.068683161482	4.047782028796
0	3891920	178.069253005172	4.048351872486
0	3924039	178.858923182081	1.838022043395
0	3924061	178.859514926392	1.838613787706
0	3924086	178.860106670703	1.839205532017
0	3924546	178.87131094855	1.850409809864
0	3925011	178.882369650308	1.861468511622
0	3931223	179.020901142686	0
0	3931224	179.020901142686	0
0	3931225	179.020901142686	0
0	3959120	179.733020733465	4.712119598779
0	3959148	179.733590577155	4.712689442469
0	3959511	179.742314079012	4.721412944326
0	3959535	179.742883922702	4.721982788016
0	3971062	180.020901144686	0
0	3971063	180.020901144686	0
0	3971064	180.020901144686	0
0	3984613	180.345384891313	2.324483750627
0	3984647	180.345976635624	2.325075494938
0	3984681	180.346568379935	2.325667239249
0	3985254	180.357772657782	2.336871517096
0	3985813	180.36883135954	2.347930218854
0	4014248	181.020901146686	0
0	4014249	181.020901146686	0
0	4014250	181.020901146686	0
0	4019992	181.159909333225	5.139008196539
0	4020013	181.160479176915	5.139578040229
0	4020374	181.169202678772	5.148301542086
0	4020401	181.169772522462	5.148871385776
0	4043857	181.727699601809	2.706798459123
0	4043881	181.72829134612	2.707390203434
0	4043901	181.728883090431	2.707981947745
0	4044328	181.740087368278	2.719186225592
0	4044743	181.751146070036	2.73024492735
0	4054969	182.020901148686	0
0	4054970	182.020901148686	0
0	4054971	182.020901148686	0
0	4084963	182.747493853565	5.726592714879
0	4084994	182.748063697255	5.727162558569
0	4085451	182.756787199112	5.735886060426
0	4085482	182.757357042802	5.736455904116
0	4098325	183.020901150686	0
0	4098326	183.020901150686	0
0	4098327	183.020901150686	0
0	4102215	183.11297303386	3.092071889174
0	4102239	183.113564778171	3.092663633485
[...]
0	26903360	1234.110006078992	0
0	26903361	1234.110006078992	0
0	26903362	1234.110006078992	0
0	26903363	1234.110006078992	0
0	26903462	1234.120618612528	0.010612533536005
0	26903470	1234.121001525774	0.010995446781862
0	26903476	1234.121231146064	0.011225067072019
0	26903485	1234.121499249165	0.011493170173026
0	26903491	1234.1218436796	0.011837600608033
0	26903496	1234.121996972556	0.011990893563961
0	26903506	1234.122456213136	0.012450134144046
0	26903585	1234.131073646073	0.021067567080991
0	26911794	1235.110006079192	0
0	26911795	1235.110006079192	0
0	26911796	1235.110006079192	0
0	26911797	1235.110006079192	0
0	26911906	1235.120618612728	0.010612533536005
0	26911912	1235.121001525974	0.01099544678209
0	26911922	1235.121231146264	0.011225067072019
0	26911927	1235.121499249365	0.011493170173026
0	26911934	1235.1218436798	0.011837600608033
0	26911942	1235.121996972756	0.011990893564189
0	26911947	1235.122456213336	0.012450134144046
0	26912029	1235.131073646273	0.021067567081218
0	26919583	1236.034360667142	23.925021271233
0	26919600	1236.035890400886	23.926551004977
0	26919680	1236.044093523661	23.934754127752
0	26919696	1236.045623257405	23.936283861496
0	26920335	1236.110006079392	0
0	26920336	1236.110006079392	0
0	26920337	1236.110006079392	0
0	26920338	1236.110006079392	0
0	26920451	1236.120618612928	0.010612533536005
0	26920461	1236.121001526174	0.01099544678209
0	26920467	1236.121231146464	0.011225067072019
0	26920474	1236.121499249565	0.011493170173026
0	26920483	1236.12184368	0.011837600608033
0	26920488	1236.121996972956	0.011990893563961
0	26920498	1236.122456213536	0.012450134144046
0	26920587	1236.131073646473	0.021067567080991
0	26929845	1237.110006079592	0
0	26929846	1237.110006079592	0
0	26929847	1237.110006079592	0
0	26929848	1237.110006079592	0
0	26929966	1237.120618613128	0.010612533536005
0	26929971	1237.121001526374	0.010995446781862
0	26929978	1237.121231146664	0.011225067072019
0	26929987	1237.121499249765	0.011493170173026
0	26929994	1237.1218436802	0.011837600608033
0	26930000	1237.121996973156	0.011990893563961
0	26930009	1237.122456213736	0.012450134144046
0	26930098	1237.131073646673	0.021067567080991
0	26934226	1237.56715387863	24.457814480721
0	26934242	1237.568683612374	24.459344214465
0	26934319	1237.576886735149	24.46754733724
0	26934335	1237.578416468893	24.469077070984
0	26939372	1238.110006079792	0
0	26939373	1238.110006079792	0
0	26939374	1238.110006079792	0
0	26939375	1238.110006079792	0
0	26939490	1238.120618613328	0.010612533536005
0	26939500	1238.121001526574	0.01099544678209
0	26939506	1238.121231146864	0.011225067072019
0	26939511	1238.121499249965	0.011493170173026
0	26939522	1238.1218436804	0.011837600608033
0	26939527	1238.121996973356	0.011990893563961
0	26939537	1238.122456213936	0.012450134144046
0	26939628	1238.131073646873	0.021067567080991
0	26948820	1239.110006079992	0
0	26948821	1239.110006079992	0
0	26948822	1239.110006079992	0
0	26948823	1239.110006079992	0
0	26948930	1239.120618613528	0.010612533536005
0	26948935	1239.121001526774	0.01099544678209
0	26948941	1239.121231147064	0.011225067072019
0	26948951	1239.121499250165	0.011493170173026
0	26948957	1239.1218436806	0.011837600608033
0	26948962	1239.121996973556	0.011990893563961
0	26948972	1239.122456214136	0.012450134144046
0	26949052	1239.131073647073	0.021067567080991
0	26953335	1239.64376743611	25.534428036201
0	26953351	1239.645297169854	25.535957769945
0	26953423	1239.653500292629	25.54416089272
0	26953438	1239.655030026373	25.545690626464
0	26957668	1240.110006080192	0
0	26957669	1240.110006080192	0
0	26957670	1240.110006080192	0
0	26957671	1240.110006080192	0
0	26957786	1240.120618613728	0.010612533536005
0	26957796	1240.121064531331	0.011058451138979
0	26957802	1240.121231147264	0.011225067071791
0	26957807	1240.121562254722	0.011556174529915
0	26957818	1240.1218436808	0.011837600607805
0	26957823	1240.122059978113	0.01205389792085
0	26957829	1240.122456214336	0.012450134143819
0	26957922	1240.13113665163	0.02113057143788
0	26967170	1241.110006080392	0
0	26967171	1241.110006080392	0
0	26967172	1241.110006080392	0
0	26967173	1241.110006080392	0
0	26967284	1241.120618613928	0.010612533536005
0	26967294	1241.121001527174	0.01099544678209
0	26967301	1241.121231147464	0.011225067072019
0	26967310	1241.121499250565	0.011493170173026
0	26967316	1241.121843681	0.011837600608033
0	26967321	1241.121996973956	0.011990893563961
0	26967331	1241.122456214536	0.012450134144046
0	26967419	1241.131073647473	0.021067567080991
0	26968329	1241.226276994278	26.116937592369
0	26968345	1241.227806728022	26.118467326113
0	26968433	1241.237539584541	26.128200182632
0	26976687	1242.110006080592	0
0	26976688	1242.110006080592	0
0	26976689	1242.110006080592	0
0	26976690	1242.110006080592	0
0	26976802	1242.120618614128	0.010612533536005
0	26976816	1242.121191401611	0.011185321018957
0	26976821	1242.121231147664	0.011225067072019
0	26976828	1242.121689125002	0.011683044409892
0	26976833	1242.1218436812	0.011837600608033
0	26976843	1242.122186848393	0.012180767801055
0	26976849	1242.122456214736	0.012450134144046
0	26976941	1242.13126352191	0.021257441317857
0	26985834	1243.110006080792	0
0	26985835	1243.110006080792	0
0	26985836	1243.110006080792	0
0	26985837	1243.110006080792	0
0	26985939	1243.120618614328	0.010612533536005
0	26985948	1243.121001527574	0.01099544678209
0	26985954	1243.121231147864	0.011225067072019
0	26985959	1243.121499250965	0.011493170173026
0	26985969	1243.1218436814	0.011837600608033
0	26985974	1243.121996974356	0.011990893564189
0	26985984	1243.122456214936	0.012450134144046
0	26986064	1243.131073647873	0.021067567080991
0	26986260	1243.15450637859	27.045166974681
0	26986276	1243.156036112334	27.046696708425
0	26986355	1243.165768968853	27.056429564944
0	26994889	1244.110006080992	0
0	26994890	1244.110006080992	0
0	26994891	1244.110006080992	0
0	26994892	1244.110006080992	0
0	26995007	1244.120618614528	0.010612533536005
0	26995012	1244.121001527774	0.01099544678209
0	26995018	1244.121231148064	0.011225067072019
0	26995028	1244.121499251165	0.011493170173026
0	26995035	1244.1218436816	0.011837600608033
0	26995040	1244.121996974556	0.011990893563961
0	26995049	1244.122456215136	0.012450134144046
0	26995139	1244.131073648073	0.021067567080991
0	27000318	1244.73395646927	27.624617063361
0	27000331	1244.735486203014	27.626146797105
0	27000411	1244.745219059533	27.635879653624
0	27003502	1245.110006081192	0
0	27003503	1245.110006081192	0
0	27003504	1245.110006081192	0
0	27003505	1245.110006081192	0
0	27003613	1245.120618614728	0.010612533536005
0	27003623	1245.121001527974	0.010995446781862
0	27003629	1245.121231148264	0.011225067072019
0	27003634	1245.121499251365	0.011493170172798
0	27003645	1245.1218436818	0.011837600607805
0	27003650	1245.121996974756	0.011990893563961
0	27003656	1245.122456215336	0.012450134143819
0	27003740	1245.131073648273	0.021067567080991
0	27011336	1246.044938287878	27.935598879969
0	27011353	1246.046468021622	27.937128613713
0	27011432	1246.056200878141	27.946861470232
0	27011913	1246.110006081392	0
0	27011914	1246.110006081392	0
0	27011915	1246.110006081392	0
0	27011916	1246.110006081392	0
0	27012018	1246.120618614928	0.010612533536005
0	27012027	1246.121001528174	0.01099544678209
0	27012034	1246.121231148464	0.011225067072019
0	27012044	1246.121499251565	0.011493170173026
0	27012050	1246.121843682	0.011837600608033
0	27012055	1246.121996974956	0.011990893563961
0	27012064	1246.122456215536	0.012450134144046
0	27012139	1246.131073648473	0.021067567080991
0	27020341	1247.110006081592	0
0	27020342	1247.110006081592	0
0	27020343	1247.110006081592	0
0	27020344	1247.110006081592	0
0	27020444	1247.120618615128	0.010612533536005
0	27020458	1247.121126143875	0.011120062282998
0	27020464	1247.121231148664	0.011225067072019
0	27020470	1247.121623867266	0.011617785673934
0	27020477	1247.1218436822	0.011837600608033
0	27020485	1247.122121590657	0.01211550906487
0	27020490	1247.122456215736	0.012450134144046
0	27020571	1247.131198264174	0.021192182581899
0	27022625	1248.110006081792	0
0	27022626	1248.110006081792	0
0	27022627	1248.110006081792	0
0	27022628	1248.110006081792	0
0	27022651	1248.120618615328	0.010612533536005
0	27022656	1248.121001528574	0.01099544678209
0	27022662	1248.121231148864	0.011225067072019
0	27022667	1248.121499251965	0.011493170173026
0	27022673	1248.1218436824	0.011837600608033
0	27022678	1248.121996975356	0.011990893564189
0	27022683	1248.122456215936	0.012450134144046
0	27022693	1248.131073648873	0.021067567080991
0	27023312	1249.110006081992	0
0	27023313	1249.110006081992	0
0	27023314	1249.110006081992	0
0	27023315	1249.110006081992	0
0	27023338	1249.120618615528	0.010612533536005
0	27023343	1249.121001528774	0.01099544678209
0	27023349	1249.121231149064	0.011225067072019
0	27023354	1249.121499252165	0.011493170173026
0	27023360	1249.1218436826	0.011837600608033
0	27023365	1249.121996975556	0.011990893563961
0	27023370	1249.122456216136	0.012450134144046
0	27023380	1249.131073649073	0.021067567080991
0	27024009	1250.110006082192	0
0	27024010	1250.110006082192	0
0	27024011	1250.110006082192	0
0	27024012	1250.110006082192	0
0	27024035	1250.120618615728	0.010612533536005
0	27024040	1250.121001528974	0.010995446781862
0	27024046	1250.121231149264	0.011225067072019
0	27024051	1250.121499252365	0.011493170173026
0	27024057	1250.1218436828	0.011837600607805
0	27024062	1250.121996975756	0.011990893563961
0	27024067	1250.122456216336	0.012450134143819
0	27024077	1250.131073649273	0.021067567080991
0	27024696	1251.110006082392	0
0	27024697	1251.110006082392	0
0	27024698	1251.110006082392	0
0	27024699	1251.110006082392	0
0	27024722	1251.120618615928	0.010612533536005
0	27024727	1251.121001529174	0.01099544678209
0	27024733	1251.121231149464	0.011225067072019
0	27024738	1251.121499252565	0.011493170173026
0	27024744	1251.121843683	0.011837600608033
0	27024749	1251.121996975956	0.011990893563961
0	27024754	1251.122456216536	0.012450134144046
0	27024764	1251.131073649473	0.021067567080991
0	27025383	1252.110006082592	0
0	27025384	1252.110006082592	0
0	27025385	1252.110006082592	0
0	27025386	1252.110006082592	0
0	27025409	1252.120618616128	0.010612533536005
0	27025414	1252.121001529374	0.010995446781862
0	27025420	1252.121231149664	0.011225067072019
0	27025425	1252.121499252765	0.011493170173026
0	27025431	1252.1218436832	0.011837600608033
0	27025436	1252.121996976156	0.011990893563961
0	27025441	1252.122456216736	0.012450134144046
0	27025451	1252.131073649673	0.021067567080991
0	27026070	1253.110006082792	0
0	27026071	1253.110006082792	0
0	27026072	1253.110006082792	0
0	27026073	1253.110006082792	0
0	27026096	1253.120618616328	0.010612533536005
0	27026101	1253.121001529574	0.01099544678209
0	27026107	1253.121231149864	0.011225067072019
0	27026112	1253.121499252965	0.011493170173026
0	27026118	1253.1218436834	0.011837600608033
0	27026123	1253.121996976356	0.011990893564189
0	27026128	1253.122456216936	0.012450134144046
0	27026138	1253.131073649873	0.021067567081218
0	27026757	1254.110006082992	0
0	27026758	1254.110006082992	0
0	27026759	1254.110006082992	0
0	27026760	1254.110006082992	0
0	27026783	1254.120618616528	0.010612533536005
0	27026788	1254.121001529774	0.01099544678209
0	27026794	1254.121231150064	0.011225067072019
0	27026799	1254.121499253165	0.011493170173026
0	27026805	1254.1218436836	0.011837600608033
0	27026810	1254.121996976556	0.011990893563961
0	27026815	1254.122456217136	0.012450134144046
0	27026825	1254.131073650073	0.021067567080991
0	27027454	1255.110006083192	0
0	27027455	1255.110006083192	0
0	27027456	1255.110006083192	0
0	27027457	1255.110006083192	0
0	27027480	1255.120618616728	0.010612533536005
0	27027485	1255.121001529974	0.010995446781862
0	27027491	1255.121231150264	0.011225067072019
0	27027496	1255.121499253365	0.011493170173026
0	27027502	1255.1218436838	0.011837600608033
0	27027507	1255.121996976756	0.011990893563961
0	27027512	1255.122456217336	0.012450134143819
0	27027522	1255.131073650273	0.021067567080991
0	27028141	1256.110006083392	0
0	27028142	1256.110006083392	0
0	27028143	1256.110006083392	0
0	27028144	1256.110006083392	0
0	27028167	1256.120618616928	0.010612533536005
0	27028172	1256.121001530174	0.01099544678209
0	27028178	1256.121231150464	0.011225067072019
0	27028183	1256.121499253565	0.011493170173026
0	27028189	1256.121843684	0.011837600608033
0	27028194	1256.121996976956	0.011990893563961
0	27028199	1256.122456217536	0.012450134144046
0	27028209	1256.131073650473	0.021067567080991
0	27028828	1257.110006083592	0
0	27028829	1257.110006083592	0
0	27028830	1257.110006083592	0
0	27028831	1257.110006083592	0
0	27028854	1257.120618617128	0.010612533536005
0	27028859	1257.121001530374	0.01099544678209
0	27028865	1257.121231150664	0.011225067072019
0	27028870	1257.121499253765	0.011493170173026
0	27028876	1257.1218436842	0.011837600608033
0	27028881	1257.121996977156	0.011990893563961
0	27028886	1257.122456217736	0.012450134144046
0	27028896	1257.131073650673	0.021067567080991
0	27029515	1258.110006083792	0
0	27029516	1258.110006083792	0
0	27029517	1258.110006083792	0
0	27029518	1258.110006083792	0
0	27029541	1258.120618617328	0.010612533535777
0	27029546	1258.121001530574	0.010995446781862
0	27029552	1258.121231150864	0.011225067071791
0	27029557	1258.121499253965	0.011493170172798
0	27029563	1258.1218436844	0.011837600607805
0	27029568	1258.121996977356	0.011990893563961
0	27029573	1258.122456217936	0.012450134143819
0	27029583	1258.131073650873	0.021067567080991
0	27030202	1259.110006083992	0
0	27030203	1259.110006083992	0
0	27030204	1259.110006083992	0
0	27030205	1259.110006083992	0
0	27030228	1259.120618617528	0.010612533536005
0	27030233	1259.121001530774	0.01099544678209
0	27030239	1259.121231151064	0.011225067072019
0	27030244	1259.121499254165	0.011493170173026
0	27030250	1259.1218436846	0.011837600608033
0	27030255	1259.121996977556	0.011990893563961
0	27030260	1259.122456218136	0.012450134144046
0	27030270	1259.131073651073	0.021067567080991
0	27030899	1260.110006084192	0
0	27030900	1260.110006084192	0
0	27030901	1260.110006084192	0
0	27030902	1260.110006084192	0
0	27030925	1260.120618617728	0.010612533536005
0	27030930	1260.121001530974	0.010995446781862
0	27030936	1260.121231151264	0.011225067072019
0	27030941	1260.121499254365	0.011493170173026
0	27030947	1260.1218436848	0.011837600608033
0	27030952	1260.121996977756	0.011990893563961
0	27030957	1260.122456218336	0.012450134144046
0	27030967	1260.131073651273	0.021067567080991
0	27031586	1261.110006084392	0
0	27031587	1261.110006084392	0
0	27031588	1261.110006084392	0
0	27031589	1261.110006084392	0
0	27031612	1261.120618617928	0.010612533536005
0	27031617	1261.121001531174	0.01099544678209
0	27031623	1261.121231151464	0.011225067072019
0	27031628	1261.121499254565	0.011493170173026
0	27031634	1261.121843685	0.011837600608033
0	27031639	1261.121996977956	0.011990893564189
0	27031644	1261.122456218536	0.012450134144046
0	27031654	1261.131073651473	0.021067567080991
0	27032273	1262.110006084592	0
0	27032274	1262.110006084592	0
0	27032275	1262.110006084592	0
0	27032276	1262.110006084592	0
0	27032299	1262.120618618128	0.010612533536005
0	27032304	1262.121001531374	0.01099544678209
0	27032310	1262.121231151664	0.011225067072019
0	27032315	1262.121499254765	0.011493170173026
0	27032321	1262.1218436852	0.011837600608033
0	27032326	1262.121996978156	0.011990893563961
0	27032331	1262.122456218736	0.012450134144046
0	27032341	1262.131073651673	0.021067567080991
0	27032960	1263.110006084792	0
0	27032961	1263.110006084792	0
0	27032962	1263.110006084792	0
0	27032963	1263.110006084792	0
0	27032986	1263.120618618328	0.010612533536005
0	27032991	1263.121001531574	0.010995446781862
0	27032997	1263.121231151864	0.011225067071791
0	27033002	1263.121499254965	0.011493170172798
0	27033008	1263.1218436854	0.011837600607805
0	27033013	1263.121996978356	0.011990893563961
0	27033018	1263.122456218936	0.012450134143819
0	27033028	1263.131073651873	0.021067567080991
0	27034200	1264.110006084992	0
0	27034201	1264.110006084992	0
0	27034202	1264.110006084992	0
0	27034203	1264.110006084992	0
0	27034285	1264.120618618528	0.010612533536005
0	27034294	1264.121001531774	0.01099544678209
0	27034300	1264.121231152064	0.011225067072019
0	27034306	1264.121499255165	0.011493170173026
0	27034311	1264.1218436856	0.011837600608033
0	27034316	1264.121996978556	0.011990893563961
0	27034325	1264.122456219136	0.012450134144046
0	27034398	1264.131073652073	0.021067567080991
0	27041740	1265.111339418075	0
0	27041741	1265.111339418075	0
0	27041742	1265.111339418075	0
0	27041743	1265.111339418075	0
0	27041839	1265.121951951611	0.010612533536005
0	27041844	1265.122334864857	0.01099544678209
0	27041854	1265.122564485147	0.011225067072019
0	27041859	1265.122832588248	0.011493170173026
0	27041865	1265.123177018683	0.011837600608033
0	27041870	1265.123330311639	0.011990893563961
0	27041879	1265.123789552219	0.012450134144046
0	27041959	1265.132406985156	0.021067567080991
0	27050756	1266.112450529086	0
0	27050757	1266.112450529086	0
0	27050758	1266.112450529086	0
0	27050759	1266.112450529086	0
0	27050875	1266.123063062622	0.010612533536005
0	27050880	1266.123445975868	0.01099544678209
0	27050887	1266.123675596158	0.011225067072019
0	27050896	1266.123943699259	0.011493170173026
0	27050901	1266.124288129694	0.011837600608033
0	27050906	1266.12444142265	0.011990893564189
0	27050916	1266.12490066323	0.012450134144046
0	27051013	1266.133518096167	0.021067567080991
0	27061222	1267.113402909638	0
0	27061223	1267.113402909638	0
0	27061224	1267.113402909638	0
0	27061225	1267.113402909638	0
0	27061348	1267.124015443174	0.010612533536005
0	27061357	1267.12439835642	0.01099544678209
0	27061363	1267.12462797671	0.011225067072019
0	27061369	1267.124896079811	0.011493170173026
0	27061378	1267.125240510246	0.011837600608033
0	27061383	1267.125393803202	0.011990893564189
0	27061389	1267.125853043782	0.012450134144046
0	27061505	1267.134470476719	0.021067567080991
0	27073210	1268.114236242571	0
0	27073211	1268.114236242571	0
0	27073212	1268.114236242571	0
0	27073213	1268.114236242571	0
0	27073360	1268.124848776107	0.010612533536005
0	27073366	1268.125231689353	0.01099544678209
0	27073379	1268.125461309643	0.011225067072019
0	27073384	1268.125729412744	0.011493170173026
0	27073390	1268.126073843179	0.011837600608033
0	27073399	1268.126227136135	0.011990893563961
0	27073404	1268.126686376715	0.012450134144046
0	27073536	1268.135303809652	0.021067567080991
0	27086693	1269.114236242921	0
0	27086694	1269.114236242921	0
0	27086695	1269.114236242921	0
0	27086696	1269.114236242921	0
0	27086847	1269.124848776457	0.010612533536005
0	27086860	1269.125231689703	0.01099544678209
0	27086866	1269.125461309993	0.011225067072019
0	27086880	1269.125729413094	0.011493170173026
0	27086885	1269.126073843529	0.011837600608033
0	27086891	1269.126227136485	0.011990893563961
0	27086903	1269.126686377065	0.012450134144046
0	27087036	1269.135303810002	0.021067567080991
0	27101633	1270.114236243421	0
0	27101634	1270.114236243421	0
0	27101635	1270.114236243421	0
0	27101636	1270.114236243421	0
0	27101802	1270.124848776957	0.010612533536005
0	27101811	1270.125231690203	0.01099544678209
0	27101820	1270.125461310493	0.011225067072019
0	27101825	1270.125729413594	0.011493170173026
0	27101838	1270.126073844029	0.011837600608033
0	27101843	1270.126227136985	0.011990893563961
0	27101856	1270.126686377565	0.012450134144046
0	27101993	1270.135303810502	0.021067567080991
0	27112668	1271.114842303927	0
0	27112669	1271.114842303927	0
0	27112670	1271.114842303927	0
0	27112671	1271.114842303927	0
0	27112787	1271.125454837463	0.010612533536005
0	27112793	1271.125837750709	0.01099544678209
0	27112803	1271.126067370999	0.011225067072019
0	27112808	1271.1263354741	0.011493170173026
0	27112817	1271.126679904535	0.011837600608033
0	27112822	1271.126833197491	0.011990893563961
0	27112831	1271.127292438071	0.012450134144046
0	27112930	1271.135909871008	0.021067567080991

